<?xml version="1.0" encoding="UTF-8"?>

<!-- generated on 2024-04-27 23:05:18 by Eclipse SUMO netedit Version v1_19_0+0208-13a9e45677a
-->

<additional xmlns:xsi="http://www.w3.org/2001/XMLSchema-instance" xsi:noNamespaceSchemaLocation="http://sumo.dlr.de/xsd/additional_file.xsd">
    <!-- Detectors -->
    <laneAreaDetector id="e2_0" lane="R7_2" pos="292.39" length="16.67" period="1.00" file="NUL"/>
    <laneAreaDetector id="e2_1" lane="R7_1" pos="292.43" length="16.67" period="1.00" file="NUL"/>
    <laneAreaDetector id="e2_10" lane="R7_0" pos="241.05" length="16.67" period="1.00" file="NUL"/>
    <laneAreaDetector id="e2_100" lane="L1_1" pos="236.45" length="16.67" period="1.00" file="NUL"/>
    <laneAreaDetector id="e2_101" lane="L1_2" pos="236.16" length="16.67" period="1.00" file="NUL"/>
    <laneAreaDetector id="e2_102" lane="L1_3" pos="235.90" length="16.67" period="1.00" file="NUL"/>
    <laneAreaDetector id="e2_103" lane="L1_4" pos="235.69" length="16.67" period="1.00" file="NUL"/>
    <laneAreaDetector id="e2_104" lane="L1_0" pos="219.44" length="16.67" period="1.00" file="NUL"/>
    <laneAreaDetector id="e2_105" lane="L1_1" pos="219.14" length="16.67" period="1.00" file="NUL"/>
    <laneAreaDetector id="e2_106" lane="L1_2" pos="218.94" length="16.67" period="1.00" file="NUL"/>
    <laneAreaDetector id="e2_107" lane="R4_0" pos="16.33" length="16.67" period="1.00" file="NUL"/>
    <laneAreaDetector id="e2_108" lane="R4_1" pos="16.30" length="16.67" period="1.00" file="NUL"/>
    <laneAreaDetector id="e2_109" lane="R4_2" pos="16.32" length="16.67" period="1.00" file="NUL"/>
    <laneAreaDetector id="e2_11" lane="R7_2" pos="240.90" length="16.67" period="1.00" file="NUL"/>
    <laneAreaDetector id="e2_110" lane="R4_3" pos="16.33" length="16.67" period="1.00" file="NUL"/>
    <laneAreaDetector id="e2_111" lane="R4_0" pos="0.09" length="16.67" period="1.00" file="NUL"/>
    <laneAreaDetector id="e2_112" lane="R4_1" pos="0.08" length="16.67" period="1.00" file="NUL"/>
    <laneAreaDetector id="e2_113" lane="R4_2" pos="0.10" length="16.67" period="1.00" file="NUL"/>
    <laneAreaDetector id="e2_114" lane="R4_3" pos="0.09" length="16.67" period="1.00" file="NUL"/>
    <laneAreaDetector id="e2_115" lane="R5_0" pos="19.33" length="16.67" period="1.00" file="NUL"/>
    <laneAreaDetector id="e2_116" lane="R5_1" pos="19.35" length="16.67" period="1.00" file="NUL"/>
    <laneAreaDetector id="e2_117" lane="R5_2" pos="19.43" length="16.67" period="1.00" file="NUL"/>
    <laneAreaDetector id="e2_118" lane="R5_0" pos="2.36" length="16.67" period="1.00" file="NUL"/>
    <laneAreaDetector id="e2_119" lane="R5_1" pos="2.31" length="16.67" period="1.00" file="NUL"/>
    <laneAreaDetector id="e2_12" lane="R7_1" pos="223.93" length="16.67" period="1.00" file="NUL"/>
    <laneAreaDetector id="e2_120" lane="R5_2" pos="2.30" length="16.67" period="1.00" file="NUL"/>
    <laneAreaDetector id="e2_121" lane="L1_3" pos="218.62" length="16.67" period="1.00" file="NUL"/>
    <laneAreaDetector id="e2_122" lanes="R6_0 R5_0" pos="87.48" endPos="1.94" period="1.00" file="NUL"/>
    <laneAreaDetector id="e2_123" lanes="R6_1 R5_1" pos="87.49" endPos="1.87" period="1.00" file="NUL"/>
    <laneAreaDetector id="e2_124" lanes="R6_2 R5_2" pos="87.42" endPos="1.88" period="1.00" file="NUL"/>
    <laneAreaDetector id="e2_125" lane="R6_0" pos="70.51" length="16.67" period="1.00" file="NUL"/>
    <laneAreaDetector id="e2_126" lane="R6_1" pos="70.33" length="16.67" period="1.00" file="NUL"/>
    <laneAreaDetector id="e2_127" lane="R6_2" pos="70.33" length="16.67" period="1.00" file="NUL"/>
    <laneAreaDetector id="e2_128" lane="R6_0" pos="53.51" length="16.67" period="1.00" file="NUL"/>
    <laneAreaDetector id="e2_129" lane="R6_1" pos="53.44" length="16.67" period="1.00" file="NUL"/>
    <laneAreaDetector id="e2_13" lane="R7_2" pos="223.82" length="16.67" period="1.00" file="NUL"/>
    <laneAreaDetector id="e2_130" lane="R6_2" pos="53.38" length="16.67" period="1.00" file="NUL"/>
    <laneAreaDetector id="e2_131" lane="R6_2" pos="36.42" length="16.67" period="1.00" file="NUL"/>
    <laneAreaDetector id="e2_132" lane="R6_1" pos="36.47" length="16.67" period="1.00" file="NUL"/>
    <laneAreaDetector id="e2_133" lane="R6_0" pos="36.53" length="16.67" period="1.00" file="NUL"/>
    <laneAreaDetector id="e2_134" lane="R6_0" pos="19.62" length="16.67" period="1.00" file="NUL"/>
    <laneAreaDetector id="e2_135" lane="R6_1" pos="19.59" length="16.67" period="1.00" file="NUL"/>
    <laneAreaDetector id="e2_136" lane="R6_2" pos="19.51" length="16.67" period="1.00" file="NUL"/>
    <laneAreaDetector id="e2_137" lane="R6_0" pos="2.45" length="16.67" period="1.00" file="NUL"/>
    <laneAreaDetector id="e2_138" lane="R6_1" pos="2.43" length="16.67" period="1.00" file="NUL"/>
    <laneAreaDetector id="e2_139" lane="R6_2" pos="2.39" length="16.67" period="1.00" file="NUL"/>
    <laneAreaDetector id="e2_14" lane="R7_0" pos="224.05" length="16.67" period="1.00" file="NUL"/>
    <laneAreaDetector id="e2_140" lanes="L5_4 L6_4" pos="10.32" endPos="3.30" period="1.00" file="NUL"/>
    <laneAreaDetector id="e2_141" lanes="L5_3 L6_3" pos="10.47" endPos="3.40" period="1.00" file="NUL"/>
    <laneAreaDetector id="e2_142" lanes="L5_2 L6_2" pos="10.41" endPos="3.56" period="1.00" file="NUL"/>
    <laneAreaDetector id="e2_143" lanes="L5_1 L6_1" pos="10.54" endPos="3.52" period="1.00" file="NUL"/>
    <laneAreaDetector id="e2_144" lanes="L5_0 L6_0" pos="10.58" endPos="3.48" period="1.00" file="NUL"/>
    <laneAreaDetector id="e2_145" lane="L4_0" pos="3.64" length="16.67" period="1.00" file="NUL"/>
    <laneAreaDetector id="e2_146" lanes="L4_0 L5_0" pos="20.62" endPos="10.35" period="1.00" file="NUL"/>
    <laneAreaDetector id="e2_147" lanes="L4_1 L5_1" pos="20.84" endPos="10.37" period="1.00" file="NUL"/>
    <laneAreaDetector id="e2_148" lanes="L4_2 L5_2" pos="20.77" endPos="10.25" period="1.00" file="NUL"/>
    <laneAreaDetector id="e2_149" lanes="L4_3 L5_3" pos="20.85" endPos="10.35" period="1.00" file="NUL"/>
    <laneAreaDetector id="e2_15" lane="R7_1" pos="206.83" length="16.67" period="1.00" file="NUL"/>
    <laneAreaDetector id="e2_150" lanes="L4_4 L5_4" pos="20.84" endPos="10.14" period="1.00" file="NUL"/>
    <laneAreaDetector id="e2_151" lane="L4_1" pos="3.74" length="16.67" period="1.00" file="NUL"/>
    <laneAreaDetector id="e2_152" lane="L4_2" pos="3.69" length="16.67" period="1.00" file="NUL"/>
    <laneAreaDetector id="e2_153" lane="L4_3" pos="3.71" length="16.67" period="1.00" file="NUL"/>
    <laneAreaDetector id="e2_154" lane="L4_4" pos="3.75" length="16.67" period="1.00" file="NUL"/>
    <laneAreaDetector id="e2_155" lane="L3_0" pos="0.17" length="16.67" period="1.00" file="NUL"/>
    <laneAreaDetector id="e2_156" lanes="L3_0 L4_0" pos="32.38" endPos="3.32" period="1.00" file="NUL"/>
    <laneAreaDetector id="e2_157" lanes="L3_1 L4_1" pos="32.50" endPos="3.54" period="1.00" file="NUL"/>
    <laneAreaDetector id="e2_158" lanes="L3_2 L4_2" pos="32.53" endPos="3.56" period="1.00" file="NUL"/>
    <laneAreaDetector id="e2_159" lanes="L3_3 L4_3" pos="32.65" endPos="3.54" period="1.00" file="NUL"/>
    <laneAreaDetector id="e2_16" lane="R7_2" pos="206.74" length="16.67" period="1.00" file="NUL"/>
    <laneAreaDetector id="e2_160" lanes="L3_4 L4_4" pos="32.49" endPos="3.62" period="1.00" file="NUL"/>
    <laneAreaDetector id="e2_161" lane="L3_0" pos="15.41" length="16.67" period="1.00" file="NUL"/>
    <laneAreaDetector id="e2_162" lane="L3_1" pos="15.50" length="16.67" period="1.00" file="NUL"/>
    <laneAreaDetector id="e2_163" lane="L3_2" pos="15.55" length="16.67" period="1.00" file="NUL"/>
    <laneAreaDetector id="e2_164" lane="L3_3" pos="15.56" length="16.67" period="1.00" file="NUL"/>
    <laneAreaDetector id="e2_165" lane="L3_4" pos="15.63" length="16.67" period="1.00" file="NUL"/>
    <laneAreaDetector id="e2_166" lane="L3_1" pos="0.07" length="16.67" period="1.00" file="NUL"/>
    <laneAreaDetector id="e2_167" lane="L3_2" pos="0.13" length="16.67" period="1.00" file="NUL"/>
    <laneAreaDetector id="e2_168" lane="L3_3" pos="0.18" length="16.67" period="1.00" file="NUL"/>
    <laneAreaDetector id="e2_169" lane="L3_4" pos="0.37" length="16.67" period="1.00" file="NUL"/>
    <laneAreaDetector id="e2_17" lane="R7_0" pos="207.01" length="16.67" period="1.00" file="NUL"/>
    <laneAreaDetector id="e2_170" lane="L2_0" pos="61.27" length="16.67" period="1.00" file="NUL"/>
    <laneAreaDetector id="e2_171" lane="L2_1" pos="61.29" length="16.67" period="1.00" file="NUL"/>
    <laneAreaDetector id="e2_172" lane="L2_2" pos="61.24" length="16.67" period="1.00" file="NUL"/>
    <laneAreaDetector id="e2_173" lane="L2_4" pos="61.31" length="16.67" period="1.00" file="NUL"/>
    <laneAreaDetector id="e2_174" lane="L2_3" pos="61.26" length="16.67" period="1.00" file="NUL"/>
    <laneAreaDetector id="e2_175" lane="L2_0" pos="44.32" length="16.67" period="1.00" file="NUL"/>
    <laneAreaDetector id="e2_176" lane="L2_1" pos="44.46" length="16.67" period="1.00" file="NUL"/>
    <laneAreaDetector id="e2_177" lane="L2_2" pos="44.43" length="16.67" period="1.00" file="NUL"/>
    <laneAreaDetector id="e2_178" lane="L2_3" pos="44.34" length="16.67" period="1.00" file="NUL"/>
    <laneAreaDetector id="e2_179" lane="L2_4" pos="44.46" length="16.67" period="1.00" file="NUL"/>
    <laneAreaDetector id="e2_18" lane="R7_2" pos="189.59" length="16.67" period="1.00" file="NUL"/>
    <laneAreaDetector id="e2_180" lane="L2_0" pos="27.44" length="16.67" period="1.00" file="NUL"/>
    <laneAreaDetector id="e2_181" lane="L2_1" pos="27.50" length="16.67" period="1.00" file="NUL"/>
    <laneAreaDetector id="e2_182" lane="L2_2" pos="27.45" length="16.67" period="1.00" file="NUL"/>
    <laneAreaDetector id="e2_183" lane="L2_3" pos="27.38" length="16.67" period="1.00" file="NUL"/>
    <laneAreaDetector id="e2_184" lane="L2_4" pos="27.32" length="16.67" period="1.00" file="NUL"/>
    <laneAreaDetector id="e2_185" lane="R4_3" pos="1.35" length="16.67" period="1.00" file="NUL"/>
    <laneAreaDetector id="e2_186" lane="L2_0" pos="10.40" length="16.67" period="1.00" file="NUL"/>
    <laneAreaDetector id="e2_187" lane="L2_1" pos="10.43" length="16.67" period="1.00" file="NUL"/>
    <laneAreaDetector id="e2_188" lane="L2_2" pos="10.16" length="16.67" period="1.00" file="NUL"/>
    <laneAreaDetector id="e2_189" lane="L2_3" pos="10.26" length="16.67" period="1.00" file="NUL"/>
    <laneAreaDetector id="e2_19" lane="R7_1" pos="189.76" length="16.67" period="1.00" file="NUL"/>
    <laneAreaDetector id="e2_190" lane="L2_4" pos="10.35" length="16.67" period="1.00" file="NUL"/>
    <laneAreaDetector id="e2_191" lane="L1_4" pos="218.58" length="16.67" period="1.00" file="NUL"/>
    <laneAreaDetector id="e2_192" lane="L1_0" pos="202.57" length="16.67" period="1.00" file="NUL"/>
    <laneAreaDetector id="e2_193" lane="L1_1" pos="202.28" length="16.67" period="1.00" file="NUL"/>
    <laneAreaDetector id="e2_194" lane="L1_2" pos="202.09" length="16.67" period="1.00" file="NUL"/>
    <laneAreaDetector id="e2_195" lane="L1_3" pos="201.90" length="16.67" period="1.00" file="NUL"/>
    <laneAreaDetector id="e2_196" lane="L1_4" pos="201.75" length="16.67" period="1.00" file="NUL"/>
    <laneAreaDetector id="e2_197" lane="L1_0" pos="185.44" length="16.67" period="1.00" file="NUL"/>
    <laneAreaDetector id="e2_198" lane="L1_1" pos="185.23" length="16.67" period="1.00" file="NUL"/>
    <laneAreaDetector id="e2_199" lane="L1_2" pos="184.92" length="16.67" period="1.00" file="NUL"/>
    <laneAreaDetector id="e2_2" lane="R7_0" pos="292.40" length="16.67" period="1.00" file="NUL"/>
    <laneAreaDetector id="e2_20" lane="R7_0" pos="190.00" length="16.67" period="1.00" file="NUL"/>
    <laneAreaDetector id="e2_200" lane="L1_3" pos="184.70" length="16.67" period="1.00" file="NUL"/>
    <laneAreaDetector id="e2_201" lane="L1_4" pos="184.50" length="16.67" period="1.00" file="NUL"/>
    <laneAreaDetector id="e2_202" lane="L1_0" pos="168.22" length="16.67" period="1.00" file="NUL"/>
    <laneAreaDetector id="e2_203" lane="L1_1" pos="168.08" length="16.67" period="1.00" file="NUL"/>
    <laneAreaDetector id="e2_204" lane="L1_2" pos="167.88" length="16.67" period="1.00" file="NUL"/>
    <laneAreaDetector id="e2_205" lane="L1_3" pos="167.56" length="16.67" period="1.00" file="NUL"/>
    <laneAreaDetector id="e2_206" lane="L1_4" pos="167.30" length="16.67" period="1.00" file="NUL"/>
    <laneAreaDetector id="e2_207" lane="L1_0" pos="151.33" length="16.67" period="1.00" file="NUL"/>
    <laneAreaDetector id="e2_208" lane="L1_1" pos="150.98" length="16.67" period="1.00" file="NUL"/>
    <laneAreaDetector id="e2_209" lane="L1_2" pos="150.77" length="16.67" period="1.00" file="NUL"/>
    <laneAreaDetector id="e2_21" lane="R7_2" pos="172.66" length="16.67" period="1.00" file="NUL"/>
    <laneAreaDetector id="e2_210" lane="L1_3" pos="150.52" length="16.67" period="1.00" file="NUL"/>
    <laneAreaDetector id="e2_211" lane="L1_4" pos="150.41" length="16.67" period="1.00" file="NUL"/>
    <laneAreaDetector id="e2_212" lane="L1_0" pos="134.22" length="16.67" period="1.00" file="NUL"/>
    <laneAreaDetector id="e2_213" lane="L1_1" pos="134.04" length="16.67" period="1.00" file="NUL"/>
    <laneAreaDetector id="e2_214" lane="L1_2" pos="133.75" length="16.67" period="1.00" file="NUL"/>
    <laneAreaDetector id="e2_215" lane="L1_3" pos="133.59" length="16.67" period="1.00" file="NUL"/>
    <laneAreaDetector id="e2_216" lane="L1_4" pos="133.29" length="16.67" period="1.00" file="NUL"/>
    <laneAreaDetector id="e2_217" lane="L1_0" pos="117.22" length="16.67" period="1.00" file="NUL"/>
    <laneAreaDetector id="e2_218" lane="L1_1" pos="117.00" length="16.67" period="1.00" file="NUL"/>
    <laneAreaDetector id="e2_219" lane="L1_2" pos="116.70" length="16.67" period="1.00" file="NUL"/>
    <laneAreaDetector id="e2_22" lane="R7_1" pos="172.76" length="16.67" period="1.00" file="NUL"/>
    <laneAreaDetector id="e2_220" lane="L1_3" pos="116.63" length="16.67" period="1.00" file="NUL"/>
    <laneAreaDetector id="e2_221" lane="L1_4" pos="116.30" length="16.67" period="1.00" file="NUL"/>
    <laneAreaDetector id="e2_222" lane="L1_0" pos="100.31" length="16.67" period="1.00" file="NUL"/>
    <laneAreaDetector id="e2_223" lane="L1_1" pos="100.21" length="16.67" period="1.00" file="NUL"/>
    <laneAreaDetector id="e2_224" lane="L1_2" pos="99.91" length="16.67" period="1.00" file="NUL"/>
    <laneAreaDetector id="e2_225" lane="L1_3" pos="99.80" length="16.67" period="1.00" file="NUL"/>
    <laneAreaDetector id="e2_226" lane="L1_4" pos="99.43" length="16.67" period="1.00" file="NUL"/>
    <laneAreaDetector id="e2_227" lane="L1_0" pos="83.31" length="16.67" period="1.00" file="NUL"/>
    <laneAreaDetector id="e2_228" lane="L1_1" pos="83.26" length="16.67" period="1.00" file="NUL"/>
    <laneAreaDetector id="e2_229" lane="L1_2" pos="83.01" length="16.67" period="1.00" file="NUL"/>
    <laneAreaDetector id="e2_23" lane="R7_0" pos="173.01" length="16.67" period="1.00" file="NUL"/>
    <laneAreaDetector id="e2_230" lane="L1_3" pos="82.92" length="16.67" period="1.00" file="NUL"/>
    <laneAreaDetector id="e2_231" lane="L1_4" pos="82.60" length="16.67" period="1.00" file="NUL"/>
    <laneAreaDetector id="e2_232" lane="L1_0" pos="66.06" length="16.67" period="1.00" file="NUL"/>
    <laneAreaDetector id="e2_233" lane="L1_1" pos="66.13" length="16.67" period="1.00" file="NUL"/>
    <laneAreaDetector id="e2_234" lane="L1_2" pos="65.90" length="16.67" period="1.00" file="NUL"/>
    <laneAreaDetector id="e2_235" lane="L1_3" pos="65.89" length="16.67" period="1.00" file="NUL"/>
    <laneAreaDetector id="e2_236" lane="L1_4" pos="65.55" length="16.67" period="1.00" file="NUL"/>
    <laneAreaDetector id="e2_237" lane="L1_0" pos="49.01" length="16.67" period="1.00" file="NUL"/>
    <laneAreaDetector id="e2_238" lane="L1_1" pos="48.92" length="16.67" period="1.00" file="NUL"/>
    <laneAreaDetector id="e2_239" lane="L1_2" pos="49.00" length="16.67" period="1.00" file="NUL"/>
    <laneAreaDetector id="e2_24" lane="R7_1" pos="155.56" length="16.67" period="1.00" file="NUL"/>
    <laneAreaDetector id="e2_240" lane="L1_3" pos="48.96" length="16.67" period="1.00" file="NUL"/>
    <laneAreaDetector id="e2_241" lane="L1_4" pos="48.67" length="16.67" period="1.00" file="NUL"/>
    <laneAreaDetector id="e2_242" lane="L1_0" pos="32.04" length="16.67" period="1.00" file="NUL"/>
    <laneAreaDetector id="e2_243" lane="L1_1" pos="31.96" length="16.67" period="1.00" file="NUL"/>
    <laneAreaDetector id="e2_244" lane="L1_2" pos="31.91" length="16.67" period="1.00" file="NUL"/>
    <laneAreaDetector id="e2_245" lane="L1_3" pos="31.76" length="16.67" period="1.00" file="NUL"/>
    <laneAreaDetector id="e2_246" lane="L1_4" pos="31.76" length="16.67" period="1.00" file="NUL"/>
    <laneAreaDetector id="e2_247" lane="L1_0" pos="15.06" length="16.67" period="1.00" file="NUL"/>
    <laneAreaDetector id="e2_248" lane="L1_1" pos="14.91" length="16.67" period="1.00" file="NUL"/>
    <laneAreaDetector id="e2_249" lane="L1_2" pos="14.88" length="16.67" period="1.00" file="NUL"/>
    <laneAreaDetector id="e2_25" lane="R7_0" pos="155.86" length="16.67" period="1.00" file="NUL"/>
    <laneAreaDetector id="e2_250" lane="L1_3" pos="14.86" length="16.67" period="1.00" file="NUL"/>
    <laneAreaDetector id="e2_251" lane="L1_4" pos="14.70" length="16.67" period="1.00" file="NUL"/>
    <laneAreaDetector id="e2_252" lane="univ-road-lower-out_0" pos="142.03" length="13.89" period="1.00" file="NUL"/>
    <laneAreaDetector id="e2_253" lane="univ-road-lower-out_0" pos="127.84" length="13.89" period="1.00" file="NUL"/>
    <laneAreaDetector id="e2_254" lane="univ-road-lower-out_0" pos="113.61" length="13.89" period="1.00" file="NUL"/>
    <laneAreaDetector id="e2_255" lane="univ-road-lower-out_0" pos="99.39" length="13.89" period="1.00" file="NUL"/>
    <laneAreaDetector id="e2_256" lane="univ-road-lower-out_0" pos="85.10" length="13.89" period="1.00" file="NUL"/>
    <laneAreaDetector id="e2_257" lane="univ-road-lower-out_0" pos="70.84" length="13.89" period="1.00" file="NUL"/>
    <laneAreaDetector id="e2_258" lane="univ-road-lower-out_0" pos="56.71" length="13.89" period="1.00" file="NUL"/>
    <laneAreaDetector id="e2_259" lane="univ-road-lower-out_0" pos="42.46" length="13.89" period="1.00" file="NUL"/>
    <laneAreaDetector id="e2_26" lane="R7_2" pos="155.66" length="16.67" period="1.00" file="NUL"/>
    <laneAreaDetector id="e2_260" lane="univ-road-lower-out_0" pos="28.37" length="13.89" period="1.00" file="NUL"/>
    <laneAreaDetector id="e2_261" lane="univ-road-lower-out_0" pos="14.28" length="13.89" period="1.00" file="NUL"/>
    <laneAreaDetector id="e2_262" lane="univ-road-lower-out_0" pos="1.29" length="13.89" period="1.00" file="NUL"/>
    <laneAreaDetector id="e2_263" lane="univ-road-upper-out_0" pos="266.37" length="13.89" period="1.00" file="NUL"/>
    <laneAreaDetector id="e2_264" lane="univ-road-upper-out_0" pos="252.33" length="13.89" period="1.00" file="NUL"/>
    <laneAreaDetector id="e2_265" lane="univ-road-upper-out_0" pos="238.04" length="13.89" period="1.00" file="NUL"/>
    <laneAreaDetector id="e2_266" lane="univ-road-upper-out_0" pos="223.85" length="13.89" period="1.00" file="NUL"/>
    <laneAreaDetector id="e2_267" lane="univ-road-upper-out_0" pos="209.61" length="13.89" period="1.00" file="NUL"/>
    <laneAreaDetector id="e2_268" lane="univ-road-upper-out_0" pos="195.57" length="13.89" period="1.00" file="NUL"/>
    <laneAreaDetector id="e2_269" lane="univ-road-upper-out_0" pos="181.51" length="13.89" period="1.00" file="NUL"/>
    <laneAreaDetector id="e2_27" lane="R7_2" pos="138.60" length="16.67" period="1.00" file="NUL"/>
    <laneAreaDetector id="e2_270" lane="univ-road-upper-out_0" pos="167.30" length="13.89" period="1.00" file="NUL"/>
    <laneAreaDetector id="e2_271" lane="univ-road-upper-out_0" pos="153.17" length="13.89" period="1.00" file="NUL"/>
    <laneAreaDetector id="e2_272" lane="univ-road-upper-out_0" pos="138.93" length="13.89" period="1.00" file="NUL"/>
    <laneAreaDetector id="e2_273" lane="univ-road-upper-out_0" pos="124.50" length="13.89" period="1.00" file="NUL"/>
    <laneAreaDetector id="e2_274" lane="univ-road-upper-out_0" pos="110.34" length="13.89" period="1.00" file="NUL"/>
    <laneAreaDetector id="e2_275" lane="univ-road-upper-out_0" pos="96.20" length="13.89" period="1.00" file="NUL"/>
    <laneAreaDetector id="e2_276" lane="univ-road-upper-out_0" pos="82.02" length="13.89" period="1.00" file="NUL"/>
    <laneAreaDetector id="e2_277" lane="univ-road-upper-out_0" pos="67.95" length="13.89" period="1.00" file="NUL"/>
    <laneAreaDetector id="e2_278" lane="univ-road-upper-out_0" pos="53.77" length="13.89" period="1.00" file="NUL"/>
    <laneAreaDetector id="e2_279" lane="univ-road-upper-out_0" pos="39.44" length="13.89" period="1.00" file="NUL"/>
    <laneAreaDetector id="e2_28" lane="R7_1" pos="138.72" length="16.67" period="1.00" file="NUL"/>
    <laneAreaDetector id="e2_280" lane="univ-road-upper-out_0" pos="25.14" length="13.89" period="1.00" file="NUL"/>
    <laneAreaDetector id="e2_281" lane="univ-road-upper-out_0" pos="10.82" length="13.89" period="1.00" file="NUL"/>
    <laneAreaDetector id="e2_282" lane="thornton-drive-lower-out_0" pos="34.84" length="13.89" period="1.00" file="NUL"/>
    <laneAreaDetector id="e2_283" lane="thornton-drive-lower-out_0" pos="20.80" length="13.89" period="1.00" file="NUL"/>
    <laneAreaDetector id="e2_284" lane="thornton-drive-lower-out_0" pos="6.44" length="13.89" period="1.00" file="NUL"/>
    <laneAreaDetector id="e2_285" lanes="thornton-drive-extension-outward_0 thornton-drive-lower-out_0" pos="188.04" endPos="5.60" period="1.00" file="NUL"/>
    <laneAreaDetector id="e2_286" lane="thornton-drive-extension-outward_0" pos="173.69" length="13.89" period="1.00" file="NUL"/>
    <laneAreaDetector id="e2_287" lane="thornton-drive-extension-outward_0" pos="159.58" length="13.89" period="1.00" file="NUL"/>
    <laneAreaDetector id="e2_288" lane="thornton-drive-extension-outward_0" pos="145.23" length="13.89" period="1.00" file="NUL"/>
    <laneAreaDetector id="e2_289" lane="thornton-drive-extension-outward_0" pos="131.05" length="13.89" period="1.00" file="NUL"/>
    <laneAreaDetector id="e2_29" lane="R7_0" pos="138.79" length="16.67" period="1.00" file="NUL"/>
    <laneAreaDetector id="e2_290" lane="thornton-drive-extension-outward_0" pos="116.79" length="13.89" period="1.00" file="NUL"/>
    <laneAreaDetector id="e2_291" lane="thornton-drive-extension-outward_0" pos="102.69" length="13.89" period="1.00" file="NUL"/>
    <laneAreaDetector id="e2_292" lane="thornton-drive-extension-outward_0" pos="88.75" length="13.89" period="1.00" file="NUL"/>
    <laneAreaDetector id="e2_293" lane="thornton-drive-extension-outward_0" pos="74.49" length="13.89" period="1.00" file="NUL"/>
    <laneAreaDetector id="e2_294" lane="thornton-drive-extension-outward_0" pos="60.31" length="13.89" period="1.00" file="NUL"/>
    <laneAreaDetector id="e2_295" lane="thornton-drive-extension-outward_0" pos="45.98" length="13.89" period="1.00" file="NUL"/>
    <laneAreaDetector id="e2_296" lane="thornton-drive-extension-outward_0" pos="31.77" length="13.89" period="1.00" file="NUL"/>
    <laneAreaDetector id="e2_297" lane="thornton-drive-extension-outward_0" pos="17.55" length="13.89" period="1.00" file="NUL"/>
    <laneAreaDetector id="e2_298" lane="thornton-drive-extension-outward_0" pos="3.51" length="13.89" period="1.00" file="NUL"/>
    <laneAreaDetector id="e2_299" lane="thornton-drive-upper-out_0" pos="22.57" length="13.89" period="1.00" file="NUL"/>
    <laneAreaDetector id="e2_3" lane="R7_2" pos="275.25" length="16.67" period="1.00" file="NUL"/>
    <laneAreaDetector id="e2_30" lane="R7_1" pos="121.54" length="16.67" period="1.00" file="NUL"/>
    <laneAreaDetector id="e2_300" lane="thornton-drive-upper-out_0" pos="7.12" length="13.89" period="1.00" file="NUL"/>
    <laneAreaDetector id="e2_301" lane="b.gonzales-road_1" pos="286.31" length="8.33" period="1.00" file="NUL"/>
    <laneAreaDetector id="e2_302" lane="b.gonzales-road_0" pos="286.26" length="8.33" period="1.00" file="NUL"/>
    <laneAreaDetector id="e2_303" lane="b.gonzales-road_1" pos="277.83" length="8.33" period="1.00" file="NUL"/>
    <laneAreaDetector id="e2_304" lane="b.gonzales-road_0" pos="277.72" length="8.33" period="1.00" file="NUL"/>
    <laneAreaDetector id="e2_305" lane="b.gonzales-road_1" pos="269.10" length="8.33" period="1.00" file="NUL"/>
    <laneAreaDetector id="e2_306" lane="b.gonzales-road_0" pos="269.28" length="8.33" period="1.00" file="NUL"/>
    <laneAreaDetector id="e2_307" lane="b.gonzales-road_1" pos="260.55" length="8.33" period="1.00" file="NUL"/>
    <laneAreaDetector id="e2_308" lane="b.gonzales-road_0" pos="260.62" length="8.33" period="1.00" file="NUL"/>
    <laneAreaDetector id="e2_309" lane="b.gonzales-road_1" pos="251.93" length="8.33" period="1.00" file="NUL"/>
    <laneAreaDetector id="e2_31" lane="R7_0" pos="121.54" length="16.67" period="1.00" file="NUL"/>
    <laneAreaDetector id="e2_310" lane="b.gonzales-road_0" pos="251.91" length="8.33" period="1.00" file="NUL"/>
    <laneAreaDetector id="e2_311" lane="b.gonzales-road_1" pos="243.42" length="8.33" period="1.00" file="NUL"/>
    <laneAreaDetector id="e2_312" lane="b.gonzales-road_0" pos="243.28" length="8.33" period="1.00" file="NUL"/>
    <laneAreaDetector id="e2_313" lane="b.gonzales-road_1" pos="234.61" length="8.33" period="1.00" file="NUL"/>
    <laneAreaDetector id="e2_314" lane="b.gonzales-road_0" pos="234.66" length="8.33" period="1.00" file="NUL"/>
    <laneAreaDetector id="e2_315" lane="b.gonzales-road_1" pos="225.97" length="8.33" period="1.00" file="NUL"/>
    <laneAreaDetector id="e2_316" lane="b.gonzales-road_0" pos="226.03" length="8.33" period="1.00" file="NUL"/>
    <laneAreaDetector id="e2_317" lane="b.gonzales-road_1" pos="217.37" length="8.33" period="1.00" file="NUL"/>
    <laneAreaDetector id="e2_318" lane="b.gonzales-road_0" pos="217.45" length="8.33" period="1.00" file="NUL"/>
    <laneAreaDetector id="e2_319" lane="b.gonzales-road_1" pos="208.67" length="8.33" period="1.00" file="NUL"/>
    <laneAreaDetector id="e2_32" lane="R7_2" pos="121.63" length="16.67" period="1.00" file="NUL"/>
    <laneAreaDetector id="e2_320" lane="b.gonzales-road_0" pos="208.66" length="8.33" period="1.00" file="NUL"/>
    <laneAreaDetector id="e2_321" lane="b.gonzales-road_1" pos="200.04" length="8.33" period="1.00" file="NUL"/>
    <laneAreaDetector id="e2_322" lane="b.gonzales-road_0" pos="200.11" length="8.33" period="1.00" file="NUL"/>
    <laneAreaDetector id="e2_323" lane="b.gonzales-road_1" pos="191.22" length="8.33" period="1.00" file="NUL"/>
    <laneAreaDetector id="e2_324" lane="b.gonzales-road_0" pos="191.33" length="8.33" period="1.00" file="NUL"/>
    <laneAreaDetector id="e2_325" lane="b.gonzales-road_1" pos="182.57" length="8.33" period="1.00" file="NUL"/>
    <laneAreaDetector id="e2_326" lane="b.gonzales-road_0" pos="182.57" length="8.33" period="1.00" file="NUL"/>
    <laneAreaDetector id="e2_327" lane="b.gonzales-road_1" pos="174.10" length="8.33" period="1.00" file="NUL"/>
    <laneAreaDetector id="e2_328" lane="b.gonzales-road_0" pos="173.90" length="8.33" period="1.00" file="NUL"/>
    <laneAreaDetector id="e2_329" lane="b.gonzales-road_1" pos="165.60" length="8.33" period="1.00" file="NUL"/>
    <laneAreaDetector id="e2_33" lane="R7_2" pos="104.58" length="16.67" period="1.00" file="NUL"/>
    <laneAreaDetector id="e2_330" lane="b.gonzales-road_0" pos="165.38" length="8.33" period="1.00" file="NUL"/>
    <laneAreaDetector id="e2_331" lane="b.gonzales-road_1" pos="157.10" length="8.33" period="1.00" file="NUL"/>
    <laneAreaDetector id="e2_332" lane="b.gonzales-road_0" pos="156.93" length="8.33" period="1.00" file="NUL"/>
    <laneAreaDetector id="e2_333" lane="b.gonzales-road_1" pos="148.54" length="8.33" period="1.00" file="NUL"/>
    <laneAreaDetector id="e2_334" lane="b.gonzales-road_0" pos="148.27" length="8.33" period="1.00" file="NUL"/>
    <laneAreaDetector id="e2_335" lane="b.gonzales-road_1" pos="139.81" length="8.33" period="1.00" file="NUL"/>
    <laneAreaDetector id="e2_336" lane="b.gonzales-road_0" pos="139.67" length="8.33" period="1.00" file="NUL"/>
    <laneAreaDetector id="e2_337" lane="b.gonzales-road_1" pos="131.11" length="8.33" period="1.00" file="NUL"/>
    <laneAreaDetector id="e2_338" lane="b.gonzales-road_0" pos="130.80" length="8.33" period="1.00" file="NUL"/>
    <laneAreaDetector id="e2_339" lane="b.gonzales-road_1" pos="122.67" length="8.33" period="1.00" file="NUL"/>
    <laneAreaDetector id="e2_34" lane="R7_1" pos="104.61" length="16.67" period="1.00" file="NUL"/>
    <laneAreaDetector id="e2_340" lane="b.gonzales-road_0" pos="122.22" length="8.33" period="1.00" file="NUL"/>
    <laneAreaDetector id="e2_341" lane="b.gonzales-road_1" pos="114.04" length="8.33" period="1.00" file="NUL"/>
    <laneAreaDetector id="e2_342" lane="b.gonzales-road_0" pos="113.59" length="8.33" period="1.00" file="NUL"/>
    <laneAreaDetector id="e2_343" lane="b.gonzales-road_1" pos="105.35" length="8.33" period="1.00" file="NUL"/>
    <laneAreaDetector id="e2_344" lane="b.gonzales-road_0" pos="104.95" length="8.33" period="1.00" file="NUL"/>
    <laneAreaDetector id="e2_345" lane="b.gonzales-road_1" pos="96.68" length="8.33" period="1.00" file="NUL"/>
    <laneAreaDetector id="e2_346" lane="b.gonzales-road_0" pos="96.45" length="8.33" period="1.00" file="NUL"/>
    <laneAreaDetector id="e2_347" lane="b.gonzales-road_1" pos="88.08" length="8.33" period="1.00" file="NUL"/>
    <laneAreaDetector id="e2_348" lane="b.gonzales-road_0" pos="87.98" length="8.33" period="1.00" file="NUL"/>