<?xml version="1.0" encoding="UTF-8"?>

<!-- generated on 2024-05-20 20:24:44 by Eclipse SUMO netedit Version 1.19.0
-->

<additional xmlns:xsi="http://www.w3.org/2001/XMLSchema-instance" xsi:noNamespaceSchemaLocation="http://sumo.dlr.de/xsd/additional_file.xsd">
    <!-- Detectors -->
    <laneAreaDetector id="Bgon_L0_C0" lane="b.gonzales-road_0" pos="1.52" length="8.33" period="1.00" file="NUL"/>
    <laneAreaDetector id="Bgon_L0_C1" lane="b.gonzales-road_0" pos="10.10" length="8.33" period="1.00" file="NUL"/>
    <laneAreaDetector id="Bgon_L0_C10" lane="b.gonzales-road_0" pos="87.98" length="8.33" period="1.00" file="NUL"/>
    <laneAreaDetector id="Bgon_L0_C11" lane="b.gonzales-road_0" pos="96.45" length="8.33" period="1.00" file="NUL"/>
    <laneAreaDetector id="Bgon_L0_C12" lane="b.gonzales-road_0" pos="104.95" length="8.33" period="1.00" file="NUL"/>
    <laneAreaDetector id="Bgon_L0_C13" lane="b.gonzales-road_0" pos="113.59" length="8.33" period="1.00" file="NUL"/>
    <laneAreaDetector id="Bgon_L0_C14" lane="b.gonzales-road_0" pos="122.22" length="8.33" period="1.00" file="NUL"/>
    <laneAreaDetector id="Bgon_L0_C15" lane="b.gonzales-road_0" pos="130.80" length="8.33" period="1.00" file="NUL"/>
    <laneAreaDetector id="Bgon_L0_C16" lane="b.gonzales-road_0" pos="139.67" length="8.33" period="1.00" file="NUL"/>
    <laneAreaDetector id="Bgon_L0_C17" lane="b.gonzales-road_0" pos="148.27" length="8.33" period="1.00" file="NUL"/>
    <laneAreaDetector id="Bgon_L0_C18" lane="b.gonzales-road_0" pos="156.93" length="8.33" period="1.00" file="NUL"/>
    <laneAreaDetector id="Bgon_L0_C19" lane="b.gonzales-road_0" pos="165.38" length="8.33" period="1.00" file="NUL"/>
    <laneAreaDetector id="Bgon_L0_C2" lane="b.gonzales-road_0" pos="18.69" length="8.33" period="1.00" file="NUL"/>
    <laneAreaDetector id="Bgon_L0_C20" lane="b.gonzales-road_0" pos="173.90" length="8.33" period="1.00" file="NUL"/>
    <laneAreaDetector id="Bgon_L0_C21" lane="b.gonzales-road_0" pos="182.57" length="8.33" period="1.00" file="NUL"/>
    <laneAreaDetector id="Bgon_L0_C22" lane="b.gonzales-road_0" pos="191.33" length="8.33" period="1.00" file="NUL"/>
    <laneAreaDetector id="Bgon_L0_C23" lane="b.gonzales-road_0" pos="200.11" length="8.33" period="1.00" file="NUL"/>
    <laneAreaDetector id="Bgon_L0_C24" lane="b.gonzales-road_0" pos="208.66" length="8.33" period="1.00" file="NUL"/>
    <laneAreaDetector id="Bgon_L0_C25" lane="b.gonzales-road_0" pos="217.45" length="8.33" period="1.00" file="NUL"/>
    <laneAreaDetector id="Bgon_L0_C26" lane="b.gonzales-road_0" pos="226.03" length="8.33" period="1.00" file="NUL"/>
    <laneAreaDetector id="Bgon_L0_C27" lane="b.gonzales-road_0" pos="234.66" length="8.33" period="1.00" file="NUL"/>
    <laneAreaDetector id="Bgon_L0_C28" lane="b.gonzales-road_0" pos="243.28" length="8.33" period="1.00" file="NUL"/>
    <laneAreaDetector id="Bgon_L0_C29" lane="b.gonzales-road_0" pos="251.91" length="8.33" period="1.00" file="NUL"/>
    <laneAreaDetector id="Bgon_L0_C3" lane="b.gonzales-road_0" pos="27.25" length="8.33" period="1.00" file="NUL"/>
    <laneAreaDetector id="Bgon_L0_C30" lane="b.gonzales-road_0" pos="260.62" length="8.33" period="1.00" file="NUL"/>
    <laneAreaDetector id="Bgon_L0_C31" lane="b.gonzales-road_0" pos="269.28" length="8.33" period="1.00" file="NUL"/>
    <laneAreaDetector id="Bgon_L0_C32" lane="b.gonzales-road_0" pos="277.72" length="8.33" period="1.00" file="NUL"/>
    <laneAreaDetector id="Bgon_L0_C33" lane="b.gonzales-road_0" pos="286.26" length="8.33" period="1.00" file="NUL"/>
    <laneAreaDetector id="Bgon_L0_C4" lane="b.gonzales-road_0" pos="35.75" length="8.33" period="1.00" file="NUL"/>
    <laneAreaDetector id="Bgon_L0_C5" lane="b.gonzales-road_0" pos="44.63" length="8.33" period="1.00" file="NUL"/>
    <laneAreaDetector id="Bgon_L0_C6" lane="b.gonzales-road_0" pos="53.33" length="8.33" period="1.00" file="NUL"/>
    <laneAreaDetector id="Bgon_L0_C7" lane="b.gonzales-road_0" pos="62.14" length="8.33" period="1.00" file="NUL"/>
    <laneAreaDetector id="Bgon_L0_C8" lane="b.gonzales-road_0" pos="71.04" length="8.33" period="1.00" file="NUL"/>
    <laneAreaDetector id="Bgon_L0_C9" lane="b.gonzales-road_0" pos="79.45" length="8.33" period="1.00" file="NUL"/>
    <laneAreaDetector id="Bgon_L1_C0" lane="b.gonzales-road_1" pos="1.77" length="8.33" period="1.00" file="NUL"/>
    <laneAreaDetector id="Bgon_L1_C1" lane="b.gonzales-road_1" pos="10.26" length="8.33" period="1.00" file="NUL"/>
    <laneAreaDetector id="Bgon_L1_C10" lane="b.gonzales-road_1" pos="88.08" length="8.33" period="1.00" file="NUL"/>
    <laneAreaDetector id="Bgon_L1_C11" lane="b.gonzales-road_1" pos="96.68" length="8.33" period="1.00" file="NUL"/>
    <laneAreaDetector id="Bgon_L1_C12" lane="b.gonzales-road_1" pos="105.35" length="8.33" period="1.00" file="NUL"/>
    <laneAreaDetector id="Bgon_L1_C13" lane="b.gonzales-road_1" pos="114.04" length="8.33" period="1.00" file="NUL"/>
    <laneAreaDetector id="Bgon_L1_C14" lane="b.gonzales-road_1" pos="122.67" length="8.33" period="1.00" file="NUL"/>
    <laneAreaDetector id="Bgon_L1_C15" lane="b.gonzales-road_1" pos="131.11" length="8.33" period="1.00" file="NUL"/>
    <laneAreaDetector id="Bgon_L1_C16" lane="b.gonzales-road_1" pos="139.81" length="8.33" period="1.00" file="NUL"/>
    <laneAreaDetector id="Bgon_L1_C17" lane="b.gonzales-road_1" pos="148.54" length="8.33" period="1.00" file="NUL"/>
    <laneAreaDetector id="Bgon_L1_C18" lane="b.gonzales-road_1" pos="157.10" length="8.33" period="1.00" file="NUL"/>
    <laneAreaDetector id="Bgon_L1_C19" lane="b.gonzales-road_1" pos="165.60" length="8.33" period="1.00" file="NUL"/>
    <laneAreaDetector id="Bgon_L1_C2" lane="b.gonzales-road_1" pos="18.73" length="8.33" period="1.00" file="NUL"/>
    <laneAreaDetector id="Bgon_L1_C20" lane="b.gonzales-road_1" pos="174.10" length="8.33" period="1.00" file="NUL"/>
    <laneAreaDetector id="Bgon_L1_C21" lane="b.gonzales-road_1" pos="182.57" length="8.33" period="1.00" file="NUL"/>
    <laneAreaDetector id="Bgon_L1_C22" lane="b.gonzales-road_1" pos="191.22" length="8.33" period="1.00" file="NUL"/>
    <laneAreaDetector id="Bgon_L1_C23" lane="b.gonzales-road_1" pos="200.04" length="8.33" period="1.00" file="NUL"/>
    <laneAreaDetector id="Bgon_L1_C24" lane="b.gonzales-road_1" pos="208.67" length="8.33" period="1.00" file="NUL"/>
    <laneAreaDetector id="Bgon_L1_C25" lane="b.gonzales-road_1" pos="217.37" length="8.33" period="1.00" file="NUL"/>
    <laneAreaDetector id="Bgon_L1_C26" lane="b.gonzales-road_1" pos="225.97" length="8.33" period="1.00" file="NUL"/>
    <laneAreaDetector id="Bgon_L1_C27" lane="b.gonzales-road_1" pos="234.61" length="8.33" period="1.00" file="NUL"/>
    <laneAreaDetector id="Bgon_L1_C28" lane="b.gonzales-road_1" pos="243.42" length="8.33" period="1.00" file="NUL"/>
    <laneAreaDetector id="Bgon_L1_C29" lane="b.gonzales-road_1" pos="251.93" length="8.33" period="1.00" file="NUL"/>
    <laneAreaDetector id="Bgon_L1_C3" lane="b.gonzales-road_1" pos="27.48" length="8.33" period="1.00" file="NUL"/>
    <laneAreaDetector id="Bgon_L1_C30" lane="b.gonzales-road_1" pos="260.55" length="8.33" period="1.00" file="NUL"/>
    <laneAreaDetector id="Bgon_L1_C31" lane="b.gonzales-road_1" pos="269.10" length="8.33" period="1.00" file="NUL"/>
    <laneAreaDetector id="Bgon_L1_C32" lane="b.gonzales-road_1" pos="277.83" length="8.33" period="1.00" file="NUL"/>
    <laneAreaDetector id="Bgon_L1_C33" lane="b.gonzales-road_1" pos="286.31" length="8.33" period="1.00" file="NUL"/>
    <laneAreaDetector id="Bgon_L1_C4" lane="b.gonzales-road_1" pos="35.99" length="8.33" period="1.00" file="NUL"/>
    <laneAreaDetector id="Bgon_L1_C5" lane="b.gonzales-road_1" pos="44.86" length="8.33" period="1.00" file="NUL"/>
    <laneAreaDetector id="Bgon_L1_C6" lane="b.gonzales-road_1" pos="53.69" length="8.33" period="1.00" file="NUL"/>
    <laneAreaDetector id="Bgon_L1_C7" lane="b.gonzales-road_1" pos="62.46" length="8.33" period="1.00" file="NUL"/>
    <laneAreaDetector id="Bgon_L1_C8" lane="b.gonzales-road_1" pos="71.15" length="8.33" period="1.00" file="NUL"/>
    <laneAreaDetector id="Bgon_L1_C9" lane="b.gonzales-road_1" pos="79.64" length="8.33" period="1.00" file="NUL"/>
    <laneAreaDetector id="FdRosa_L0_C0" lane="f.dela-rosa-road_0" pos="3.32" length="8.33" period="1.00" file="NUL"/>
    <laneAreaDetector id="FdRosa_L0_C1" lane="f.dela-rosa-road_0" pos="12.19" length="8.33" period="1.00" file="NUL"/>
    <laneAreaDetector id="FdRosa_L0_C10" lane="f.dela-rosa-road_0" pos="92.03" length="8.33" period="1.00" file="NUL"/>
    <laneAreaDetector id="FdRosa_L0_C11" lane="f.dela-rosa-road_0" pos="100.88" length="8.33" period="1.00" file="NUL"/>
    <laneAreaDetector id="FdRosa_L0_C12" lane="f.dela-rosa-road_0" pos="109.73" length="8.33" period="1.00" file="NUL"/>
    <laneAreaDetector id="FdRosa_L0_C13" lane="f.dela-rosa-road_0" pos="118.62" length="8.33" period="1.00" file="NUL"/>
    <laneAreaDetector id="FdRosa_L0_C14" lane="f.dela-rosa-road_0" pos="127.50" length="8.33" period="1.00" file="NUL"/>
    <laneAreaDetector id="FdRosa_L0_C15" lane="f.dela-rosa-road_0" pos="136.40" length="8.33" period="1.00" file="NUL"/>
    <laneAreaDetector id="FdRosa_L0_C16" lane="f.dela-rosa-road_0" pos="145.26" length="8.33" period="1.00" file="NUL"/>
    <laneAreaDetector id="FdRosa_L0_C17" lane="f.dela-rosa-road_0" pos="154.12" length="8.33" period="1.00" file="NUL"/>
    <laneAreaDetector id="FdRosa_L0_C18" lane="f.dela-rosa-road_0" pos="163.01" length="8.33" period="1.00" file="NUL"/>
    <laneAreaDetector id="FdRosa_L0_C19" lane="f.dela-rosa-road_0" pos="171.84" length="8.33" period="1.00" file="NUL"/>
    <laneAreaDetector id="FdRosa_L0_C2" lane="f.dela-rosa-road_0" pos="21.03" length="8.33" period="1.00" file="NUL"/>
    <laneAreaDetector id="FdRosa_L0_C20" lane="f.dela-rosa-road_0" pos="180.72" length="8.33" period="1.00" file="NUL"/>
    <laneAreaDetector id="FdRosa_L0_C21" lane="f.dela-rosa-road_0" pos="189.61" length="8.33" period="1.00" file="NUL"/>
    <laneAreaDetector id="FdRosa_L0_C22" lane="f.dela-rosa-road_0" pos="198.55" length="8.33" period="1.00" file="NUL"/>
    <laneAreaDetector id="FdRosa_L0_C23" lane="f.dela-rosa-road_0" pos="207.51" length="8.33" period="1.00" file="NUL"/>
    <laneAreaDetector id="FdRosa_L0_C24" lane="f.dela-rosa-road_0" pos="216.40" length="8.33" period="1.00" file="NUL"/>
    <laneAreaDetector id="FdRosa_L0_C25" lane="f.dela-rosa-road_0" pos="225.30" length="8.33" period="1.00" file="NUL"/>
    <laneAreaDetector id="FdRosa_L0_C26" lane="f.dela-rosa-road_0" pos="234.20" length="8.33" period="1.00" file="NUL"/>
    <laneAreaDetector id="FdRosa_L0_C3" lane="f.dela-rosa-road_0" pos="29.91" length="8.33" period="1.00" file="NUL"/>
    <laneAreaDetector id="FdRosa_L0_C4" lane="f.dela-rosa-road_0" pos="38.77" length="8.33" period="1.00" file="NUL"/>
    <laneAreaDetector id="FdRosa_L0_C5" lane="f.dela-rosa-road_0" pos="47.65" length="8.33" period="1.00" file="NUL"/>
    <laneAreaDetector id="FdRosa_L0_C6" lane="f.dela-rosa-road_0" pos="56.50" length="8.33" period="1.00" file="NUL"/>
    <laneAreaDetector id="FdRosa_L0_C7" lane="f.dela-rosa-road_0" pos="65.38" length="8.33" period="1.00" file="NUL"/>
    <laneAreaDetector id="FdRosa_L0_C8" lane="f.dela-rosa-road_0" pos="74.27" length="8.33" period="1.00" file="NUL"/>
    <laneAreaDetector id="FdRosa_L0_C9" lane="f.dela-rosa-road_0" pos="83.17" length="8.33" period="1.00" file="NUL"/>
    <laneAreaDetector id="FdRosa_L1_C0" lane="f.dela-rosa-road_1" pos="3.00" length="8.33" period="1.00" file="NUL"/>
    <laneAreaDetector id="FdRosa_L1_C1" lane="f.dela-rosa-road_1" pos="11.86" length="8.33" period="1.00" file="NUL"/>
    <laneAreaDetector id="FdRosa_L1_C10" lane="f.dela-rosa-road_1" pos="91.92" length="8.33" period="1.00" file="NUL"/>
    <laneAreaDetector id="FdRosa_L1_C11" lane="f.dela-rosa-road_1" pos="100.83" length="8.33" period="1.00" file="NUL"/>
    <laneAreaDetector id="FdRosa_L1_C12" lane="f.dela-rosa-road_1" pos="109.72" length="8.33" period="1.00" file="NUL"/>
    <laneAreaDetector id="FdRosa_L1_C13" lane="f.dela-rosa-road_1" pos="118.65" length="8.33" period="1.00" file="NUL"/>
    <laneAreaDetector id="FdRosa_L1_C14" lane="f.dela-rosa-road_1" pos="127.50" length="8.33" period="1.00" file="NUL"/>
    <laneAreaDetector id="FdRosa_L1_C15" lane="f.dela-rosa-road_1" pos="136.39" length="8.33" period="1.00" file="NUL"/>
    <laneAreaDetector id="FdRosa_L1_C16" lane="f.dela-rosa-road_1" pos="145.25" length="8.33" period="1.00" file="NUL"/>
    <laneAreaDetector id="FdRosa_L1_C17" lane="f.dela-rosa-road_1" pos="154.09" length="8.33" period="1.00" file="NUL"/>
    <laneAreaDetector id="FdRosa_L1_C18" lane="f.dela-rosa-road_1" pos="162.96" length="8.33" period="1.00" file="NUL"/>
    <laneAreaDetector id="FdRosa_L1_C19" lane="f.dela-rosa-road_1" pos="171.87" length="8.33" period="1.00" file="NUL"/>
    <laneAreaDetector id="FdRosa_L1_C2" lane="f.dela-rosa-road_1" pos="20.77" length="8.33" period="1.00" file="NUL"/>
    <laneAreaDetector id="FdRosa_L1_C20" lane="f.dela-rosa-road_1" pos="180.75" length="8.33" period="1.00" file="NUL"/>
    <laneAreaDetector id="FdRosa_L1_C21" lane="f.dela-rosa-road_1" pos="189.63" length="8.33" period="1.00" file="NUL"/>
    <laneAreaDetector id="FdRosa_L1_C22" lane="f.dela-rosa-road_1" pos="198.48" length="8.33" period="1.00" file="NUL"/>
    <laneAreaDetector id="FdRosa_L1_C23" lane="f.dela-rosa-road_1" pos="207.35" length="8.33" period="1.00" file="NUL"/>
    <laneAreaDetector id="FdRosa_L1_C24" lane="f.dela-rosa-road_1" pos="216.22" length="8.33" period="1.00" file="NUL"/>
    <laneAreaDetector id="FdRosa_L1_C25" lane="f.dela-rosa-road_1" pos="225.14" length="8.33" period="1.00" file="NUL"/>
    <laneAreaDetector id="FdRosa_L1_C26" lane="f.dela-rosa-road_1" pos="234.02" length="8.33" period="1.00" file="NUL"/>
    <laneAreaDetector id="FdRosa_L1_C3" lane="f.dela-rosa-road_1" pos="29.71" length="8.33" period="1.00" file="NUL"/>
    <laneAreaDetector id="FdRosa_L1_C4" lane="f.dela-rosa-road_1" pos="38.61" length="8.33" period="1.00" file="NUL"/>
    <laneAreaDetector id="FdRosa_L1_C5" lane="f.dela-rosa-road_1" pos="47.49" length="8.33" period="1.00" file="NUL"/>
    <laneAreaDetector id="FdRosa_L1_C6" lane="f.dela-rosa-road_1" pos="56.39" length="8.33" period="1.00" file="NUL"/>
    <laneAreaDetector id="FdRosa_L1_C7" lane="f.dela-rosa-road_1" pos="65.28" length="8.33" period="1.00" file="NUL"/>
    <laneAreaDetector id="FdRosa_L1_C8" lane="f.dela-rosa-road_1" pos="74.17" length="8.33" period="1.00" file="NUL"/>
    <laneAreaDetector id="FdRosa_L1_C9" lane="f.dela-rosa-road_1" pos="83.08" length="8.33" period="1.00" file="NUL"/>
    <laneAreaDetector id="K1_SB_L0_C0" lane="L1_0" pos="15.06" length="16.67" period="1.00" file="NUL"/>
    <laneAreaDetector id="K1_SB_L0_C1" lane="L1_0" pos="32.04" length="16.67" period="1.00" file="NUL"/>
    <laneAreaDetector id="K1_SB_L0_C10" lane="L1_0" pos="185.44" length="16.67" period="1.00" file="NUL"/>
    <laneAreaDetector id="K1_SB_L0_C11" lane="L1_0" pos="202.57" length="16.67" period="1.00" file="NUL"/>
    <laneAreaDetector id="K1_SB_L0_C12" lane="L1_0" pos="219.44" length="16.67" period="1.00" file="NUL"/>
    <laneAreaDetector id="K1_SB_L0_C13" lane="L1_0" pos="236.57" length="16.67" period="1.00" file="NUL"/>
    <laneAreaDetector id="K1_SB_L0_C14" lane="L1_0" pos="253.70" length="16.67" period="1.00" file="NUL"/>
    <laneAreaDetector id="K1_SB_L0_C15" lane="L1_0" pos="270.67" length="16.67" period="1.00" file="NUL"/>
    <laneAreaDetector id="K1_SB_L0_C16" lane="L1_0" pos="287.80" length="16.67" period="1.00" file="NUL"/>
    <laneAreaDetector id="K1_SB_L0_C17" lane="L1_0" pos="304.74" length="16.67" period="1.00" file="NUL"/>
    <laneAreaDetector id="K1_SB_L0_C18" lane="L1_0" pos="321.78" length="16.67" period="1.00" file="NUL"/>
    <laneAreaDetector id="K1_SB_L0_C19" lane="L1_0" pos="338.98" length="16.67" period="1.00" file="NUL"/>
    <laneAreaDetector id="K1_SB_L0_C2" lane="L1_0" pos="49.01" length="16.67" period="1.00" file="NUL"/>
    <laneAreaDetector id="K1_SB_L0_C20" lane="L1_0" pos="356.07" length="16.67" period="1.00" file="NUL"/>
    <laneAreaDetector id="K1_SB_L0_C21" lane="L1_0" pos="373.04" length="16.67" period="1.00" file="NUL"/>
    <laneAreaDetector id="K1_SB_L0_C22" lane="L1_0" pos="389.96" length="16.67" period="1.00" file="NUL"/>
    <laneAreaDetector id="K1_SB_L0_C3" lane="L1_0" pos="66.06" length="16.67" period="1.00" file="NUL"/>
    <laneAreaDetector id="K1_SB_L0_C4" lane="L1_0" pos="83.31" length="16.67" period="1.00" file="NUL"/>
    <laneAreaDetector id="K1_SB_L0_C5" lane="L1_0" pos="100.31" length="16.67" period="1.00" file="NUL"/>
    <laneAreaDetector id="K1_SB_L0_C6" lane="L1_0" pos="117.22" length="16.67" period="1.00" file="NUL"/>
    <laneAreaDetector id="K1_SB_L0_C7" lane="L1_0" pos="134.22" length="16.67" period="1.00" file="NUL"/>
    <laneAreaDetector id="K1_SB_L0_C8" lane="L1_0" pos="151.33" length="16.67" period="1.00" file="NUL"/>
    <laneAreaDetector id="K1_SB_L0_C9" lane="L1_0" pos="168.22" length="16.67" period="1.00" file="NUL"/>
    <laneAreaDetector id="K1_SB_L1_C0" lane="L1_1" pos="14.91" length="16.67" period="1.00" file="NUL"/>
    <laneAreaDetector id="K1_SB_L1_C1" lane="L1_1" pos="31.96" length="16.67" period="1.00" file="NUL"/>
    <laneAreaDetector id="K1_SB_L1_C10" lane="L1_1" pos="185.23" length="16.67" period="1.00" file="NUL"/>
    <laneAreaDetector id="K1_SB_L1_C11" lane="L1_1" pos="202.28" length="16.67" period="1.00" file="NUL"/>
    <laneAreaDetector id="K1_SB_L1_C12" lane="L1_1" pos="219.14" length="16.67" period="1.00" file="NUL"/>
    <laneAreaDetector id="K1_SB_L1_C13" lane="L1_1" pos="236.45" length="16.67" period="1.00" file="NUL"/>
    <laneAreaDetector id="K1_SB_L1_C14" lane="L1_1" pos="253.44" length="16.67" period="1.00" file="NUL"/>
    <laneAreaDetector id="K1_SB_L1_C15" lane="L1_1" pos="270.48" length="16.67" period="1.00" file="NUL"/>
    <laneAreaDetector id="K1_SB_L1_C16" lane="L1_1" pos="287.62" length="16.67" period="1.00" file="NUL"/>
    <laneAreaDetector id="K1_SB_L1_C17" lane="L1_1" pos="304.71" length="16.67" period="1.00" file="NUL"/>
    <laneAreaDetector id="K1_SB_L1_C18" lane="L1_1" pos="321.76" length="16.67" period="1.00" file="NUL"/>
    <laneAreaDetector id="K1_SB_L1_C19" lane="L1_1" pos="338.96" length="16.67" period="1.00" file="NUL"/>
    <laneAreaDetector id="K1_SB_L1_C2" lane="L1_1" pos="48.92" length="16.67" period="1.00" file="NUL"/>
    <laneAreaDetector id="K1_SB_L1_C20" lane="L1_1" pos="356.10" length="16.67" period="1.00" file="NUL"/>
    <laneAreaDetector id="K1_SB_L1_C21" lane="L1_1" pos="372.98" length="16.67" period="1.00" file="NUL"/>
    <laneAreaDetector id="K1_SB_L1_C22" lane="L1_1" pos="390.10" length="16.67" period="1.00" file="NUL"/>
    <laneAreaDetector id="K1_SB_L1_C3" lane="L1_1" pos="66.13" length="16.67" period="1.00" file="NUL"/>
    <laneAreaDetector id="K1_SB_L1_C4" lane="L1_1" pos="83.26" length="16.67" period="1.00" file="NUL"/>
    <laneAreaDetector id="K1_SB_L1_C5" lane="L1_1" pos="100.21" length="16.67" period="1.00" file="NUL"/>
    <laneAreaDetector id="K1_SB_L1_C6" lane="L1_1" pos="117.00" length="16.67" period="1.00" file="NUL"/>
    <laneAreaDetector id="K1_SB_L1_C7" lane="L1_1" pos="134.04" length="16.67" period="1.00" file="NUL"/>
    <laneAreaDetector id="K1_SB_L1_C8" lane="L1_1" pos="150.98" length="16.67" period="1.00" file="NUL"/>
    <laneAreaDetector id="K1_SB_L1_C9" lane="L1_1" pos="168.08" length="16.67" period="1.00" file="NUL"/>
    <laneAreaDetector id="K1_SB_L2_C0" lane="L1_2" pos="14.88" length="16.67" period="1.00" file="NUL"/>
    <laneAreaDetector id="K1_SB_L2_C1" lane="L1_2" pos="31.91" length="16.67" period="1.00" file="NUL"/>
    <laneAreaDetector id="K1_SB_L2_C10" lane="L1_2" pos="184.92" length="16.67" period="1.00" file="NUL"/>
    <laneAreaDetector id="K1_SB_L2_C11" lane="L1_2" pos="202.09" length="16.67" period="1.00" file="NUL"/>
    <laneAreaDetector id="K1_SB_L2_C12" lane="L1_2" pos="218.94" length="16.67" period="1.00" file="NUL"/>
    <laneAreaDetector id="K1_SB_L2_C13" lane="L1_2" pos="236.16" length="16.67" period="1.00" file="NUL"/>
    <laneAreaDetector id="K1_SB_L2_C14" lane="L1_2" pos="253.09" length="16.67" period="1.00" file="NUL"/>
    <laneAreaDetector id="K1_SB_L2_C15" lane="L1_2" pos="270.34" length="16.67" period="1.00" file="NUL"/>
    <laneAreaDetector id="K1_SB_L2_C16" lane="L1_2" pos="287.33" length="16.67" period="1.00" file="NUL"/>
    <laneAreaDetector id="K1_SB_L2_C17" lane="L1_2" pos="304.47" length="16.67" period="1.00" file="NUL"/>
    <laneAreaDetector id="K1_SB_L2_C18" lane="L1_2" pos="321.68" length="16.67" period="1.00" file="NUL"/>
    <laneAreaDetector id="K1_SB_L2_C19" lane="L1_2" pos="338.96" length="16.67" period="1.00" file="NUL"/>
    <laneAreaDetector id="K1_SB_L2_C2" lane="L1_2" pos="49.00" length="16.67" period="1.00" file="NUL"/>
    <laneAreaDetector id="K1_SB_L2_C20" lane="L1_2" pos="355.94" length="16.67" period="1.00" file="NUL"/>
    <laneAreaDetector id="K1_SB_L2_C21" lane="L1_2" pos="373.04" length="16.67" period="1.00" file="NUL"/>
    <laneAreaDetector id="K1_SB_L2_C22" lane="L1_2" pos="390.12" length="16.67" period="1.00" file="NUL"/>
    <laneAreaDetector id="K1_SB_L2_C3" lane="L1_2" pos="65.90" length="16.67" period="1.00" file="NUL"/>
    <laneAreaDetector id="K1_SB_L2_C4" lane="L1_2" pos="83.01" length="16.67" period="1.00" file="NUL"/>
    <laneAreaDetector id="K1_SB_L2_C5" lane="L1_2" pos="99.91" length="16.67" period="1.00" file="NUL"/>
    <laneAreaDetector id="K1_SB_L2_C6" lane="L1_2" pos="116.70" length="16.67" period="1.00" file="NUL"/>
    <laneAreaDetector id="K1_SB_L2_C7" lane="L1_2" pos="133.75" length="16.67" period="1.00" file="NUL"/>
    <laneAreaDetector id="K1_SB_L2_C8" lane="L1_2" pos="150.77" length="16.67" period="1.00" file="NUL"/>
    <laneAreaDetector id="K1_SB_L2_C9" lane="L1_2" pos="167.88" length="16.67" period="1.00" file="NUL"/>
    <laneAreaDetector id="K1_SB_L3_C0" lane="L1_3" pos="14.86" length="16.67" period="1.00" file="NUL"/>
    <laneAreaDetector id="K1_SB_L3_C1" lane="L1_3" pos="31.76" length="16.67" period="1.00" file="NUL"/>
    <laneAreaDetector id="K1_SB_L3_C10" lane="L1_3" pos="184.70" length="16.67" period="1.00" file="NUL"/>
    <laneAreaDetector id="K1_SB_L3_C11" lane="L1_3" pos="201.90" length="16.67" period="1.00" file="NUL"/>
    <laneAreaDetector id="K1_SB_L3_C12" lane="L1_3" pos="218.62" length="16.67" period="1.00" file="NUL"/>
    <laneAreaDetector id="K1_SB_L3_C13" lane="L1_3" pos="235.90" length="16.67" period="1.00" file="NUL"/>
    <laneAreaDetector id="K1_SB_L3_C14" lane="L1_3" pos="252.92" length="16.67" period="1.00" file="NUL"/>
    <laneAreaDetector id="K1_SB_L3_C15" lane="L1_3" pos="269.90" length="16.67" period="1.00" file="NUL"/>
    <laneAreaDetector id="K1_SB_L3_C16" lane="L1_3" pos="287.09" length="16.67" period="1.00" file="NUL"/>
    <laneAreaDetector id="K1_SB_L3_C17" lane="L1_3" pos="304.20" length="16.67" period="1.00" file="NUL"/>
    <laneAreaDetector id="K1_SB_L3_C18" lane="L1_3" pos="321.62" length="16.67" period="1.00" file="NUL"/>
    <laneAreaDetector id="K1_SB_L3_C19" lane="L1_3" pos="338.71" length="16.67" period="1.00" file="NUL"/>
    <laneAreaDetector id="K1_SB_L3_C2" lane="L1_3" pos="48.96" length="16.67" period="1.00" file="NUL"/>
    <laneAreaDetector id="K1_SB_L3_C20" lane="L1_3" pos="355.83" length="16.67" period="1.00" file="NUL"/>
    <laneAreaDetector id="K1_SB_L3_C21" lane="L1_3" pos="373.01" length="16.67" period="1.00" file="NUL"/>
    <laneAreaDetector id="K1_SB_L3_C22" lane="L1_3" pos="390.12" length="16.67" period="1.00" file="NUL"/>
    <laneAreaDetector id="K1_SB_L3_C3" lane="L1_3" pos="65.89" length="16.67" period="1.00" file="NUL"/>
    <laneAreaDetector id="K1_SB_L3_C4" lane="L1_3" pos="82.92" length="16.67" period="1.00" file="NUL"/>
    <laneAreaDetector id="K1_SB_L3_C5" lane="L1_3" pos="99.80" length="16.67" period="1.00" file="NUL"/>
    <laneAreaDetector id="K1_SB_L3_C6" lane="L1_3" pos="116.63" length="16.67" period="1.00" file="NUL"/>
    <laneAreaDetector id="K1_SB_L3_C7" lane="L1_3" pos="133.59" length="16.67" period="1.00" file="NUL"/>
    <laneAreaDetector id="K1_SB_L3_C8" lane="L1_3" pos="150.52" length="16.67" period="1.00" file="NUL"/>
    <laneAreaDetector id="K1_SB_L3_C9" lane="L1_3" pos="167.56" length="16.67" period="1.00" file="NUL"/>
    <laneAreaDetector id="K1_SB_L4_C0" lane="L1_4" pos="14.70" length="16.67" period="1.00" file="NUL"/>
    <laneAreaDetector id="K1_SB_L4_C1" lane="L1_4" pos="31.76" length="16.67" period="1.00" file="NUL"/>
    <laneAreaDetector id="K1_SB_L4_C10" lane="L1_4" pos="184.50" length="16.67" period="1.00" file="NUL"/>
    <laneAreaDetector id="K1_SB_L4_C11" lane="L1_4" pos="201.75" length="16.67" period="1.00" file="NUL"/>
    <laneAreaDetector id="K1_SB_L4_C12" lane="L1_4" pos="218.58" length="16.67" period="1.00" file="NUL"/>
    <laneAreaDetector id="K1_SB_L4_C13" lane="L1_4" pos="235.69" length="16.67" period="1.00" file="NUL"/>
    <laneAreaDetector id="K1_SB_L4_C14" lane="L1_4" pos="252.66" length="16.67" period="1.00" file="NUL"/>
    <laneAreaDetector id="K1_SB_L4_C15" lane="L1_4" pos="269.85" length="16.67" period="1.00" file="NUL"/>
    <laneAreaDetector id="K1_SB_L4_C16" lane="L1_4" pos="287.03" length="16.67" period="1.00" file="NUL"/>
    <laneAreaDetector id="K1_SB_L4_C17" lane="L1_4" pos="303.92" length="16.67" period="1.00" file="NUL"/>
    <laneAreaDetector id="K1_SB_L4_C18" lane="L1_4" pos="321.53" length="16.67" period="1.00" file="NUL"/>
    <laneAreaDetector id="K1_SB_L4_C19" lane="L1_4" pos="338.58" length="16.67" period="1.00" file="NUL"/>
    <laneAreaDetector id="K1_SB_L4_C2" lane="L1_4" pos="48.67" length="16.67" period="1.00" file="NUL"/>
    <laneAreaDetector id="K1_SB_L4_C20" lane="L1_4" pos="355.72" length="16.67" period="1.00" file="NUL"/>
    <laneAreaDetector id="K1_SB_L4_C21" lane="L1_4" pos="373.01" length="16.67" period="1.00" file="NUL"/>
    <laneAreaDetector id="K1_SB_L4_C22" lane="L1_4" pos="390.03" length="16.67" period="1.00" file="NUL"/>
    <laneAreaDetector id="K1_SB_L4_C3" lane="L1_4" pos="65.55" length="16.67" period="1.00" file="NUL"/>
    <laneAreaDetector id="K1_SB_L4_C4" lane="L1_4" pos="82.60" length="16.67" period="1.00" file="NUL"/>
    <laneAreaDetector id="K1_SB_L4_C5" lane="L1_4" pos="99.43" length="16.67" period="1.00" file="NUL"/>
    <laneAreaDetector id="K1_SB_L4_C6" lane="L1_4" pos="116.30" length="16.67" period="1.00" file="NUL"/>
    <laneAreaDetector id="K1_SB_L4_C7" lane="L1_4" pos="133.29" length="16.67" period="1.00" file="NUL"/>
    <laneAreaDetector id="K1_SB_L4_C8" lane="L1_4" pos="150.41" length="16.67" period="1.00" file="NUL"/>
    <laneAreaDetector id="K1_SB_L4_C9" lane="L1_4" pos="167.30" length="16.67" period="1.00" file="NUL"/>
    <laneAreaDetector id="K2_NB_R4_L0_C0" lane="R4_0" pos="0.09" length="16.67" period="1.00" file="NUL"/>
    <laneAreaDetector id="K2_NB_R4_L0_C1" lane="R4_0" pos="16.33" length="16.67" period="1.00" file="NUL"/>
    <laneAreaDetector id="K2_NB_R4_L1_C0" lane="R4_1" pos="0.08" length="16.67" period="1.00" file="NUL"/>
    <laneAreaDetector id="K2_NB_R4_L1_C1" lane="R4_1" pos="16.30" length="16.67" period="1.00" file="NUL"/>
    <laneAreaDetector id="K2_NB_R4_L2_C0" lane="R4_2" pos="0.10" length="16.67" period="1.00" file="NUL"/>
    <laneAreaDetector id="K2_NB_R4_L2_C1" lane="R4_2" pos="16.32" length="16.67" period="1.00" file="NUL"/>
    <laneAreaDetector id="K2_NB_R4_L3_C0" lane="R4_3" pos="0.09" length="16.67" period="1.00" file="NUL"/>
    <laneAreaDetector id="K2_NB_R4_L3_C1" lane="R4_3" pos="16.33" length="16.67" period="1.00" file="NUL"/>
    <laneAreaDetector id="K2_NB_R5R6_L0_C0" lane="R6_0" pos="2.45" length="16.67" period="1.00" file="NUL"/>
    <laneAreaDetector id="K2_NB_R5R6_L0_C1" lane="R6_0" pos="19.62" length="16.67" period="1.00" file="NUL"/>
    <laneAreaDetector id="K2_NB_R5R6_L0_C2" lane="R6_0" pos="36.53" length="16.67" period="1.00" file="NUL"/>
    <laneAreaDetector id="K2_NB_R5R6_L0_C3" lane="R6_0" pos="53.51" length="16.67" period="1.00" file="NUL"/>
    <laneAreaDetector id="K2_NB_R5R6_L0_C4" lane="R6_0" pos="70.51" length="16.67" period="1.00" file="NUL"/>
    <laneAreaDetector id="K2_NB_R5R6_L0_C5" lanes="R6_0 R5_0" pos="87.48" endPos="1.94" period="1.00" file="NUL"/>
    <laneAreaDetector id="K2_NB_R5R6_L0_C6" lane="R5_0" pos="2.36" length="16.67" period="1.00" file="NUL"/>
    <laneAreaDetector id="K2_NB_R5R6_L0_C7" lane="R5_0" pos="19.33" length="16.67" period="1.00" file="NUL"/>
    <laneAreaDetector id="K2_NB_R5R6_L1_C0" lane="R6_1" pos="2.43" length="16.67" period="1.00" file="NUL"/>
    <laneAreaDetector id="K2_NB_R5R6_L1_C1" lane="R6_1" pos="19.59" length="16.67" period="1.00" file="NUL"/>
    <laneAreaDetector id="K2_NB_R5R6_L1_C2" lane="R6_1" pos="36.47" length="16.67" period="1.00" file="NUL"/>
    <laneAreaDetector id="K2_NB_R5R6_L1_C3" lane="R6_1" pos="53.44" length="16.67" period="1.00" file="NUL"/>
    <laneAreaDetector id="K2_NB_R5R6_L1_C4" lane="R6_1" pos="70.33" length="16.67" period="1.00" file="NUL"/>
    <laneAreaDetector id="K2_NB_R5R6_L1_C5" lanes="R6_1 R5_1" pos="87.49" endPos="1.87" period="1.00" file="NUL"/>
    <laneAreaDetector id="K2_NB_R5R6_L1_C6" lane="R5_1" pos="2.31" length="16.67" period="1.00" file="NUL"/>
    <laneAreaDetector id="K2_NB_R5R6_L1_C7" lane="R5_1" pos="19.35" length="16.67" period="1.00" file="NUL"/>
    <laneAreaDetector id="K2_NB_R5R6_L2_C0" lane="R6_2" pos="2.39" length="16.67" period="1.00" file="NUL"/>