<?xml version="1.0" encoding="UTF-8"?>

<!-- generated on 2024-01-22 15:31:09 by Eclipse SUMO netedit Version v1_19_0+0208-13a9e45677a
-->

<routes xmlns:xsi="http://www.w3.org/2001/XMLSchema-instance" xsi:noNamespaceSchemaLocation="http://sumo.dlr.de/xsd/routes_file.xsd">
    <!-- Vehicles, persons and containers (sorted by depart) -->
    <flow id="f_0" begin="0.00" from="324169517" to="1072704028" end="3600.00" vehsPerHour="1800"/>
</routes>
