<?xml version="1.0" encoding="UTF-8"?>

<!-- generated on 2024-04-27 16:25:38 by Eclipse SUMO netedit Version 1.19.0
<configuration xmlns:xsi="http://www.w3.org/2001/XMLSchema-instance" xsi:noNamespaceSchemaLocation="http://sumo.dlr.de/xsd/neteditConfiguration.xsd">

    <input>
        <sumocfg-file value="C:\Users\Rodeilyn Jean Omanio\OneDrive - University of the Philippines\Desktop\School\2nd Sem Yr 2023-2024\CoE 199\ssl07-2324-sumo-config-updated\ssl07-2324-sumo-config-updated\osm.sumocfg"/>
        <additional-files value=""/>
        <route-files value="C:\Users\Rodeilyn Jean Omanio\OneDrive - University of the Philippines\Desktop\School\2nd Sem Yr 2023-2024\CoE 199\ssl07-2324-sumo-config-updated\ssl07-2324-sumo-config-updated\osm.rou.xml"/>
        <sumo-net-file value="C:\Users\Rodeilyn Jean Omanio\OneDrive - University of the Philippines\Desktop\School\2nd Sem Yr 2023-2024\CoE 199\ssl07-2324-sumo-config-updated\ssl07-2324-sumo-config-updated\osm.net.xml"/>
    </input>

    <output>
        <output-file value="C:\Users\Rodeilyn Jean Omanio\OneDrive - University of the Philippines\Desktop\School\2nd Sem Yr 2023-2024\CoE 199\ssl07-2324-sumo-config-updated\ssl07-2324-sumo-config-updated\osm.net.xml"/>
        <output.street-names value="true"/>
    </output>

    <processing>
        <geometry.min-radius.fix.railways value="false"/>
        <geometry.max-grade.fix value="false"/>
        <offset.disable-normalization value="true"/>
        <lefthand value="0"/>
    </processing>

    <junctions>
        <no-turnarounds value="true"/>
        <junctions.corner-detail value="5"/>
        <junctions.limit-turn-speed value="5.50"/>
        <rectangular-lane-cut value="0"/>
    </junctions>

    <pedestrian>
        <walkingareas value="0"/>
    </pedestrian>

    <netedit>
        <ignore.routeelements value="false"/>
    </netedit>

</configuration>
-->

<net version="1.16" junctionCornerDetail="5" limitTurnSpeed="5.50" xmlns:xsi="http://www.w3.org/2001/XMLSchema-instance" xsi:noNamespaceSchemaLocation="http://sumo.dlr.de/xsd/net_file.xsd">

    <location netOffset="-292331.92,-1618739.76" convBoundary="23.84,393.46,567.13,1354.77" origBoundary="121.071810,14.634111,121.079289,14.646367" projParameter="+proj=utm +zone=51 +ellps=WGS84 +datum=WGS84 +units=m +no_defs"/>

    <type id="highway.primary" priority="12" numLanes="2" speed="27.78" disallow="tram rail_urban rail rail_electric rail_fast ship" oneway="0"/>
    <type id="highway.residential" priority="3" numLanes="1" speed="13.89" disallow="tram rail_urban rail rail_electric rail_fast ship" oneway="0"/>

    <edge id=":f.dela-rosa_0" function="internal">
        <lane id=":f.dela-rosa_0_0" index="0" disallow="tram rail_urban rail rail_electric rail_fast ship" speed="6.95" length="2.73" shape="173.57,676.81 174.20,677.19 174.62,677.47 175.06,677.71 175.73,677.97"/>
        <lane id=":f.dela-rosa_0_1" index="1" disallow="tram rail_urban rail rail_electric rail_fast ship" speed="6.95" length="2.73" shape="172.03,679.62 172.80,680.07 173.32,680.40 173.86,680.68 174.69,681.00"/>
    </edge>
    <edge id=":katip-b.gonzales-thornton-drive-intersection_0" function="internal">
        <lane id=":katip-b.gonzales-thornton-drive-intersection_0_0" index="0" disallow="tram rail_urban rail rail_electric rail_fast ship" speed="16.67" length="40.95" shape="293.23,947.44 291.09,906.29"/>
        <lane id=":katip-b.gonzales-thornton-drive-intersection_0_1" index="1" disallow="tram rail_urban rail rail_electric rail_fast ship" speed="16.67" length="40.95" shape="296.42,947.12 294.28,906.13"/>
        <lane id=":katip-b.gonzales-thornton-drive-intersection_0_2" index="2" disallow="tram rail_urban rail rail_electric rail_fast ship" speed="16.67" length="40.95" shape="299.61,946.81 297.48,905.97"/>
        <lane id=":katip-b.gonzales-thornton-drive-intersection_0_3" index="3" disallow="tram rail_urban rail rail_electric rail_fast ship" speed="16.67" length="40.95" shape="302.79,946.49 300.67,905.81"/>
        <lane id=":katip-b.gonzales-thornton-drive-intersection_0_4" index="4" disallow="tram rail_urban rail rail_electric rail_fast ship" speed="16.67" length="40.95" shape="302.79,946.49 303.87,905.64"/>
    </edge>
    <edge id=":katip-b.gonzales-thornton-drive-intersection_5" function="internal">
        <lane id=":katip-b.gonzales-thornton-drive-intersection_5_0" index="0" disallow="tram rail_urban rail rail_electric rail_fast ship" speed="9.79" length="32.31" shape="305.98,946.18 307.76,938.08 313.25,934.34 321.05,934.62 329.75,938.59"/>
    </edge>
    <edge id=":katip-b.gonzales-thornton-drive-intersection_6" function="internal">
        <lane id=":katip-b.gonzales-thornton-drive-intersection_6_0" index="0" disallow="tram rail_urban rail rail_electric rail_fast ship" speed="6.53" length="7.50" shape="305.98,946.18 308.84,940.82 312.03,938.81"/>
        <lane id=":katip-b.gonzales-thornton-drive-intersection_6_1" index="1" disallow="tram rail_urban rail rail_electric rail_fast ship" speed="5.79" length="7.50" shape="305.98,946.18 308.16,942.09 310.59,940.56"/>
        <lane id=":katip-b.gonzales-thornton-drive-intersection_6_2" index="2" disallow="tram rail_urban rail rail_electric rail_fast ship" speed="4.95" length="7.50" shape="305.98,946.18 307.48,943.37 309.16,942.31"/>
    </edge>
    <edge id=":katip-b.gonzales-thornton-drive-intersection_22" function="internal">
        <lane id=":katip-b.gonzales-thornton-drive-intersection_22_0" index="0" disallow="tram rail_urban rail rail_electric rail_fast ship" speed="6.53" length="9.84" shape="312.03,938.81 315.54,940.16 319.39,944.86"/>
    </edge>
    <edge id=":katip-b.gonzales-thornton-drive-intersection_23" function="internal">
        <lane id=":katip-b.gonzales-thornton-drive-intersection_23_0" index="0" disallow="tram rail_urban rail rail_electric rail_fast ship" speed="5.79" length="7.50" shape="310.59,940.56 313.27,941.59 316.21,945.17"/>
    </edge>
    <edge id=":katip-b.gonzales-thornton-drive-intersection_24" function="internal">
        <lane id=":katip-b.gonzales-thornton-drive-intersection_24_0" index="0" disallow="tram rail_urban rail rail_electric rail_fast ship" speed="4.95" length="5.17" shape="309.16,942.31 311.00,943.02 313.02,945.49"/>
    </edge>
    <edge id=":katip-b.gonzales-thornton-drive-intersection_9" function="internal">
        <lane id=":katip-b.gonzales-thornton-drive-intersection_9_0" index="0" disallow="tram rail_urban rail rail_electric rail_fast ship" speed="5.53" length="9.47" shape="328.00,941.26 325.35,939.96 323.57,940.07 322.64,941.60 322.58,944.54"/>
    </edge>
    <edge id=":katip-b.gonzales-thornton-drive-intersection_10" function="internal">
        <lane id=":katip-b.gonzales-thornton-drive-intersection_10_0" index="0" disallow="tram rail_urban rail rail_electric rail_fast ship" speed="15.28" length="46.29" shape="328.00,941.26 316.39,932.55 307.97,923.73 302.73,914.82 300.67,905.81"/>
        <lane id=":katip-b.gonzales-thornton-drive-intersection_10_1" index="1" disallow="tram rail_urban rail rail_electric rail_fast ship" speed="15.28" length="44.63" shape="328.00,941.26 317.83,933.35 310.43,924.78 305.77,915.54 303.87,905.64"/>
    </edge>
    <edge id=":katip-b.gonzales-thornton-drive-intersection_12" function="internal">
        <lane id=":katip-b.gonzales-thornton-drive-intersection_12_0" index="0" disallow="tram rail_urban rail rail_electric rail_fast ship" speed="15.28" length="36.17" shape="319.17,904.86 320.66,917.56 322.92,927.41 325.95,934.42 329.75,938.59"/>
    </edge>
    <edge id=":katip-b.gonzales-thornton-drive-intersection_13" function="internal">
        <lane id=":katip-b.gonzales-thornton-drive-intersection_13_0" index="0" disallow="tram rail_urban rail rail_electric rail_fast ship" speed="16.67" length="40.05" shape="319.17,904.86 322.58,944.54"/>
        <lane id=":katip-b.gonzales-thornton-drive-intersection_13_1" index="1" disallow="tram rail_urban rail rail_electric rail_fast ship" speed="16.67" length="40.05" shape="315.97,905.03 319.39,944.86"/>
        <lane id=":katip-b.gonzales-thornton-drive-intersection_13_2" index="2" disallow="tram rail_urban rail rail_electric rail_fast ship" speed="16.67" length="40.05" shape="312.77,905.19 316.21,945.17"/>
        <lane id=":katip-b.gonzales-thornton-drive-intersection_13_3" index="3" disallow="tram rail_urban rail rail_electric rail_fast ship" speed="16.67" length="40.05" shape="309.58,905.35 313.02,945.49"/>
    </edge>
    <edge id=":katip-b.gonzales-thornton-drive-intersection_17" function="internal">
        <lane id=":katip-b.gonzales-thornton-drive-intersection_17_0" index="0" disallow="tram rail_urban rail rail_electric rail_fast ship" speed="5.74" length="9.19" shape="285.39,910.24 288.01,910.99 289.83,910.58 290.86,909.02 291.09,906.29"/>
        <lane id=":katip-b.gonzales-thornton-drive-intersection_17_1" index="1" disallow="tram rail_urban rail rail_electric rail_fast ship" speed="6.65" length="12.86" shape="285.39,910.24 289.44,911.52 292.27,911.26 293.88,909.46 294.28,906.13"/>
    </edge>
    <edge id=":katip-b.gonzales-thornton-drive-intersection_19" function="internal">
        <lane id=":katip-b.gonzales-thornton-drive-intersection_19_0" index="0" disallow="tram rail_urban rail rail_electric rail_fast ship" speed="11.11" length="52.25" shape="284.12,913.18 294.52,918.46 308.80,926.36 322.15,934.03 329.75,938.59"/>
    </edge>
    <edge id=":katip-b.gonzales-thornton-drive-intersection_20" function="internal">
        <lane id=":katip-b.gonzales-thornton-drive-intersection_20_0" index="0" disallow="tram rail_urban rail rail_electric rail_fast ship" speed="12.50" length="47.33" shape="284.12,913.18 297.46,920.15 307.26,927.81 313.51,936.15 316.21,945.17"/>
        <lane id=":katip-b.gonzales-thornton-drive-intersection_20_1" index="1" disallow="tram rail_urban rail rail_electric rail_fast ship" speed="12.50" length="45.45" shape="284.12,913.18 296.00,919.62 304.78,927.15 310.46,935.77 313.02,945.49"/>
    </edge>
    <edge id=":katip-bottom-left-junc-10to11_0" function="internal">
        <lane id=":katip-bottom-left-junc-10to11_0_0" index="0" disallow="tram rail_urban rail rail_electric rail_fast ship" speed="16.67" length="0.30" shape="267.36,449.19 267.35,448.89"/>
        <lane id=":katip-bottom-left-junc-10to11_0_1" index="1" disallow="tram rail_urban rail rail_electric rail_fast ship" speed="16.67" length="0.30" shape="270.56,449.06 270.55,448.76"/>
        <lane id=":katip-bottom-left-junc-10to11_0_2" index="2" disallow="tram rail_urban rail rail_electric rail_fast ship" speed="16.67" length="0.30" shape="273.76,448.92 273.74,448.62"/>
        <lane id=":katip-bottom-left-junc-10to11_0_3" index="3" disallow="tram rail_urban rail rail_electric rail_fast ship" speed="16.67" length="0.30" shape="276.95,448.78 276.94,448.49"/>
        <lane id=":katip-bottom-left-junc-10to11_0_4" index="4" disallow="tram rail_urban rail rail_electric rail_fast ship" speed="16.67" length="0.30" shape="280.15,448.65 280.14,448.35"/>
    </edge>
    <edge id=":katip-bottom-left-junc-7to8_0" function="internal">
        <lane id=":katip-bottom-left-junc-7to8_0_0" index="0" disallow="tram rail_urban rail rail_electric rail_fast ship" speed="16.67" length="0.37" shape="277.99,665.06 277.96,664.57"/>
        <lane id=":katip-bottom-left-junc-7to8_0_1" index="1" disallow="tram rail_urban rail rail_electric rail_fast ship" speed="16.67" length="0.37" shape="281.18,664.85 281.15,664.42"/>
        <lane id=":katip-bottom-left-junc-7to8_0_2" index="2" disallow="tram rail_urban rail rail_electric rail_fast ship" speed="16.67" length="0.37" shape="284.37,664.63 284.35,664.27"/>
        <lane id=":katip-bottom-left-junc-7to8_0_3" index="3" disallow="tram rail_urban rail rail_electric rail_fast ship" speed="16.67" length="0.37" shape="287.57,664.42 287.55,664.12"/>
        <lane id=":katip-bottom-left-junc-7to8_0_4" index="4" disallow="tram rail_urban rail rail_electric rail_fast ship" speed="16.67" length="0.37" shape="290.76,664.21 290.74,663.97"/>
    </edge>
    <edge id=":katip-bottom-left-junc-8to9_0" function="internal">
        <lane id=":katip-bottom-left-junc-8to9_0_0" index="0" disallow="tram rail_urban rail rail_electric rail_fast ship" speed="16.67" length="0.52" shape="277.05,645.24 277.03,644.90"/>
        <lane id=":katip-bottom-left-junc-8to9_0_1" index="1" disallow="tram rail_urban rail rail_electric rail_fast ship" speed="16.67" length="0.52" shape="280.25,645.09 280.22,644.66"/>
        <lane id=":katip-bottom-left-junc-8to9_0_2" index="2" disallow="tram rail_urban rail rail_electric rail_fast ship" speed="16.67" length="0.52" shape="283.44,644.94 283.41,644.42"/>
        <lane id=":katip-bottom-left-junc-8to9_0_3" index="3" disallow="tram rail_urban rail rail_electric rail_fast ship" speed="16.67" length="0.52" shape="286.64,644.79 286.60,644.18"/>
        <lane id=":katip-bottom-left-junc-8to9_0_4" index="4" disallow="tram rail_urban rail rail_electric rail_fast ship" speed="16.67" length="0.52" shape="289.84,644.64 289.79,643.94"/>
    </edge>
    <edge id=":katip-bottom-left-junc-9to10_0" function="internal">
        <lane id=":katip-bottom-left-junc-9to10_0_0" index="0" disallow="tram rail_urban rail rail_electric rail_fast ship" speed="16.67" length="0.30" shape="270.83,530.57 270.82,530.27"/>
        <lane id=":katip-bottom-left-junc-9to10_0_1" index="1" disallow="tram rail_urban rail rail_electric rail_fast ship" speed="16.67" length="0.30" shape="274.03,530.43 274.02,530.14"/>
        <lane id=":katip-bottom-left-junc-9to10_0_2" index="2" disallow="tram rail_urban rail rail_electric rail_fast ship" speed="16.67" length="0.30" shape="277.23,530.30 277.21,530.00"/>
        <lane id=":katip-bottom-left-junc-9to10_0_3" index="3" disallow="tram rail_urban rail rail_electric rail_fast ship" speed="16.67" length="0.30" shape="280.42,530.16 280.41,529.86"/>
        <lane id=":katip-bottom-left-junc-9to10_0_4" index="4" disallow="tram rail_urban rail rail_electric rail_fast ship" speed="16.67" length="0.30" shape="283.62,530.03 283.61,529.73"/>
    </edge>
    <edge id=":katip-bottom-left-junc1_0" function="internal">
        <lane id=":katip-bottom-left-junc1_0_0" index="0" disallow="tram rail_urban rail rail_electric rail_fast ship" speed="16.67" length="0.30" shape="266.30,424.10 266.29,423.80"/>
        <lane id=":katip-bottom-left-junc1_0_1" index="1" disallow="tram rail_urban rail rail_electric rail_fast ship" speed="16.67" length="0.30" shape="269.50,423.96 269.49,423.67"/>
        <lane id=":katip-bottom-left-junc1_0_2" index="2" disallow="tram rail_urban rail rail_electric rail_fast ship" speed="16.67" length="0.30" shape="272.70,423.83 272.68,423.53"/>
        <lane id=":katip-bottom-left-junc1_0_3" index="3" disallow="tram rail_urban rail rail_electric rail_fast ship" speed="16.67" length="0.30" shape="275.89,423.69 275.88,423.39"/>
        <lane id=":katip-bottom-left-junc1_0_4" index="4" disallow="tram rail_urban rail rail_electric rail_fast ship" speed="16.67" length="0.30" shape="279.09,423.56 279.08,423.26"/>
    </edge>
    <edge id=":katip-mid-left-junc-2to3_0" function="internal">
        <lane id=":katip-mid-left-junc-2to3_0_0" index="0" disallow="tram rail_urban rail rail_electric rail_fast ship" speed="16.67" length="0.30" shape="287.16,828.40 287.14,828.11"/>
        <lane id=":katip-mid-left-junc-2to3_0_1" index="1" disallow="tram rail_urban rail rail_electric rail_fast ship" speed="16.67" length="0.30" shape="290.35,828.24 290.34,827.94"/>
        <lane id=":katip-mid-left-junc-2to3_0_2" index="2" disallow="tram rail_urban rail rail_electric rail_fast ship" speed="16.67" length="0.30" shape="293.55,828.08 293.53,827.78"/>
        <lane id=":katip-mid-left-junc-2to3_0_3" index="3" disallow="tram rail_urban rail rail_electric rail_fast ship" speed="16.67" length="0.30" shape="296.74,827.92 296.73,827.62"/>
        <lane id=":katip-mid-left-junc-2to3_0_4" index="4" disallow="tram rail_urban rail rail_electric rail_fast ship" speed="16.67" length="0.30" shape="299.94,827.76 299.92,827.45"/>
    </edge>
    <edge id=":katip-mid-left-junc-3to4_0" function="internal">
        <lane id=":katip-mid-left-junc-3to4_0_0" index="0" disallow="tram rail_urban rail rail_electric rail_fast ship" speed="16.67" length="0.10" shape="284.75,781.69 284.75,781.69"/>
        <lane id=":katip-mid-left-junc-3to4_0_1" index="1" disallow="tram rail_urban rail rail_electric rail_fast ship" speed="16.67" length="0.10" shape="287.94,781.53 287.94,781.53"/>
        <lane id=":katip-mid-left-junc-3to4_0_2" index="2" disallow="tram rail_urban rail rail_electric rail_fast ship" speed="16.67" length="0.10" shape="291.14,781.36 291.14,781.36"/>
        <lane id=":katip-mid-left-junc-3to4_0_3" index="3" disallow="tram rail_urban rail rail_electric rail_fast ship" speed="16.67" length="0.10" shape="294.34,781.19 294.34,781.19"/>
        <lane id=":katip-mid-left-junc-3to4_0_4" index="4" disallow="tram rail_urban rail rail_electric rail_fast ship" speed="16.67" length="0.10" shape="297.53,781.03 297.53,781.03"/>
    </edge>
    <edge id=":katip-mid-right-junc-5to4_0" function="internal">
        <lane id=":katip-mid-right-junc-5to4_0_0" index="0" disallow="tram rail_urban rail rail_electric rail_fast ship" speed="16.67" length="8.19" shape="314.46,864.07 314.84,866.41 315.49,867.95 316.15,869.49 316.59,871.83"/>
        <lane id=":katip-mid-right-junc-5to4_0_1" index="1" disallow="tram rail_urban rail rail_electric rail_fast ship" speed="16.67" length="8.19" shape="311.27,864.25 311.65,866.61 312.30,868.17 312.96,869.72 313.40,872.08"/>
        <lane id=":katip-mid-right-junc-5to4_0_2" index="2" disallow="tram rail_urban rail rail_electric rail_fast ship" speed="16.67" length="8.19" shape="308.07,864.43 308.46,866.81 309.11,868.38 309.77,869.95 310.21,872.33"/>
        <lane id=":katip-mid-right-junc-5to4_0_3" index="3" disallow="tram rail_urban rail rail_electric rail_fast ship" speed="16.67" length="8.19" shape="308.07,864.43 307.96,866.86 307.51,868.51 307.08,870.15 307.02,872.58"/>
    </edge>
    <edge id=":katip-mid-right-junc-6to5_0" function="internal">
        <lane id=":katip-mid-right-junc-6to5_0_0" index="0" disallow="tram rail_urban rail rail_electric rail_fast ship" speed="16.67" length="0.30" shape="312.41,827.29 312.42,827.59"/>
        <lane id=":katip-mid-right-junc-6to5_0_1" index="1" disallow="tram rail_urban rail rail_electric rail_fast ship" speed="16.67" length="0.30" shape="309.21,827.47 309.23,827.77"/>
        <lane id=":katip-mid-right-junc-6to5_0_2" index="2" disallow="tram rail_urban rail rail_electric rail_fast ship" speed="16.67" length="0.30" shape="306.02,827.65 306.03,827.95"/>
    </edge>
    <edge id=":katip-top-right-curve_0" function="internal">
        <lane id=":katip-top-right-curve_0_0" index="0" disallow="tram rail_urban rail rail_electric rail_fast ship" speed="16.67" length="0.29" shape="322.68,1112.09 322.64,1112.45"/>
        <lane id=":katip-top-right-curve_0_1" index="1" disallow="tram rail_urban rail rail_electric rail_fast ship" speed="16.67" length="0.29" shape="319.50,1111.75 319.46,1112.06"/>
        <lane id=":katip-top-right-curve_0_2" index="2" disallow="tram rail_urban rail rail_electric rail_fast ship" speed="16.67" length="0.29" shape="316.31,1111.42 316.28,1111.68"/>
        <lane id=":katip-top-right-curve_0_3" index="3" disallow="tram rail_urban rail rail_electric rail_fast ship" speed="16.67" length="0.29" shape="313.13,1111.09 313.11,1111.30"/>
    </edge>
    <edge id=":katip-university-road-f.dela-rosa_0" function="internal">
        <lane id=":katip-university-road-f.dela-rosa_0_0" index="0" disallow="tram rail_urban rail rail_electric rail_fast ship" speed="16.67" length="23.42" shape="281.95,727.50 280.60,704.46"/>
        <lane id=":katip-university-road-f.dela-rosa_0_1" index="1" disallow="tram rail_urban rail rail_electric rail_fast ship" speed="16.67" length="23.42" shape="285.15,727.32 283.79,704.25"/>
        <lane id=":katip-university-road-f.dela-rosa_0_2" index="2" disallow="tram rail_urban rail rail_electric rail_fast ship" speed="16.67" length="23.42" shape="288.34,727.15 286.99,704.04"/>
        <lane id=":katip-university-road-f.dela-rosa_0_3" index="3" disallow="tram rail_urban rail rail_electric rail_fast ship" speed="16.67" length="23.42" shape="288.34,727.15 288.48,720.22 289.33,715.49 290.14,710.75 290.18,703.83"/>
        <lane id=":katip-university-road-f.dela-rosa_0_4" index="4" disallow="tram rail_urban rail rail_electric rail_fast ship" speed="16.67" length="23.42" shape="288.34,727.15 288.98,720.09 290.92,715.38 292.84,710.67 293.37,703.62"/>
    </edge>
    <edge id=":katip-university-road-f.dela-rosa_5" function="internal">
        <lane id=":katip-university-road-f.dela-rosa_5_0" index="0" disallow="tram rail_urban rail rail_electric rail_fast ship" speed="11.95" length="31.66" shape="291.54,726.97 292.83,721.31 297.36,716.90 305.12,713.75 316.12,711.84"/>
    </edge>
    <edge id=":katip-university-road-f.dela-rosa_6" function="internal">
        <lane id=":katip-university-road-f.dela-rosa_6_0" index="0" disallow="tram rail_urban rail rail_electric rail_fast ship" speed="10.86" length="31.89" shape="291.54,726.97 293.01,719.45 297.99,715.69 305.83,714.87 315.86,716.13"/>
    </edge>
    <edge id=":katip-university-road-f.dela-rosa_7" function="internal">
        <lane id=":katip-university-road-f.dela-rosa_7_0" index="0" disallow="tram rail_urban rail rail_electric rail_fast ship" speed="4.49" length="8.24" shape="294.73,726.79 296.02,724.60 297.39,723.82 298.84,724.44 300.37,726.48"/>
    </edge>
    <edge id=":katip-university-road-f.dela-rosa_8" function="internal">
        <lane id=":katip-university-road-f.dela-rosa_8_0" index="0" disallow="tram rail_urban rail rail_electric rail_fast ship" speed="6.04" length="10.62" shape="314.17,723.20 310.79,721.96 308.43,722.04 307.08,723.43 306.76,726.13"/>
    </edge>
    <edge id=":katip-university-road-f.dela-rosa_9" function="internal">
        <lane id=":katip-university-road-f.dela-rosa_9_0" index="0" disallow="tram rail_urban rail rail_electric rail_fast ship" speed="15.00" length="31.68" shape="314.17,723.20 303.87,717.71 296.44,712.65 291.88,708.03 290.18,703.83"/>
        <lane id=":katip-university-road-f.dela-rosa_9_1" index="1" disallow="tram rail_urban rail rail_electric rail_fast ship" speed="14.51" length="29.63" shape="314.17,723.20 305.32,718.30 298.90,713.40 294.92,708.51 293.37,703.62"/>
    </edge>
    <edge id=":katip-university-road-f.dela-rosa_11" function="internal">
        <lane id=":katip-university-road-f.dela-rosa_11_0" index="0" disallow="tram rail_urban rail rail_electric rail_fast ship" speed="9.74" length="31.09" shape="314.17,706.97 306.03,711.79 298.49,713.47 292.80,711.12 290.18,703.83"/>
        <lane id=":katip-university-road-f.dela-rosa_11_1" index="1" disallow="tram rail_urban rail rail_electric rail_fast ship" speed="9.12" length="27.08" shape="314.17,706.97 307.10,711.07 300.57,712.32 295.64,710.06 293.37,703.62"/>
    </edge>
    <edge id=":katip-university-road-f.dela-rosa_13" function="internal">
        <lane id=":katip-university-road-f.dela-rosa_13_0" index="0" disallow="tram rail_urban rail rail_electric rail_fast ship" speed="8.27" length="16.01" shape="305.66,702.81 306.44,707.15 308.44,710.10 311.67,711.66 316.12,711.84"/>
    </edge>
    <edge id=":katip-university-road-f.dela-rosa_14" function="internal">
        <lane id=":katip-university-road-f.dela-rosa_14_0" index="0" disallow="tram rail_urban rail rail_electric rail_fast ship" speed="9.83" length="18.33" shape="305.66,702.81 306.44,707.95 308.40,711.89 311.54,714.61 315.86,716.13"/>
    </edge>
    <edge id=":katip-university-road-f.dela-rosa_15" function="internal">
        <lane id=":katip-university-road-f.dela-rosa_15_0" index="0" disallow="tram rail_urban rail rail_electric rail_fast ship" speed="16.67" length="23.31" shape="305.66,702.81 306.76,726.13"/>
        <lane id=":katip-university-road-f.dela-rosa_15_1" index="1" disallow="tram rail_urban rail rail_electric rail_fast ship" speed="16.67" length="23.31" shape="302.46,703.02 303.56,726.30"/>
        <lane id=":katip-university-road-f.dela-rosa_15_2" index="2" disallow="tram rail_urban rail rail_electric rail_fast ship" speed="16.67" length="23.31" shape="299.27,703.23 300.37,726.48"/>
    </edge>
    <edge id=":katip-university-road-f.dela-rosa_18" function="internal">
        <lane id=":katip-university-road-f.dela-rosa_18_0" index="0" disallow="tram rail_urban rail rail_electric rail_fast ship" speed="5.95" length="9.09" shape="275.00,709.17 277.61,709.42 279.41,708.72 280.41,707.07 280.60,704.46"/>
    </edge>
    <edge id=":katip-university-road-f.dela-rosa_19" function="internal">
        <lane id=":katip-university-road-f.dela-rosa_19_0" index="0" disallow="tram rail_urban rail rail_electric rail_fast ship" speed="11.11" length="41.27" shape="275.00,709.17 284.83,710.66 297.34,711.58 308.96,711.97 316.12,711.84"/>
    </edge>
    <edge id=":katip-university-road-f.dela-rosa_20" function="internal">
        <lane id=":katip-university-road-f.dela-rosa_20_0" index="0" disallow="tram rail_urban rail rail_electric rail_fast ship" speed="11.11" length="41.44" shape="275.00,709.17 315.86,716.13"/>
    </edge>
    <edge id=":katip-university-road-f.dela-rosa_21" function="internal">
        <lane id=":katip-university-road-f.dela-rosa_21_0" index="0" disallow="tram rail_urban rail rail_electric rail_fast ship" speed="12.50" length="33.50" shape="274.25,712.28 286.93,715.79 296.04,719.30 301.59,722.81 303.56,726.30"/>
        <lane id=":katip-university-road-f.dela-rosa_21_1" index="1" disallow="tram rail_urban rail rail_electric rail_fast ship" speed="12.50" length="30.95" shape="274.25,712.28 285.51,715.51 293.62,718.95 298.57,722.61 300.37,726.48"/>
    </edge>
    <edge id=":katip-upper-left-junc-4to5_0" function="internal">
        <lane id=":katip-upper-left-junc-4to5_0_0" index="0" disallow="tram rail_urban rail rail_electric rail_fast ship" speed="16.67" length="0.10" shape="283.36,754.79 283.36,754.79"/>
        <lane id=":katip-upper-left-junc-4to5_0_1" index="1" disallow="tram rail_urban rail rail_electric rail_fast ship" speed="16.67" length="0.10" shape="286.55,754.63 286.55,754.62"/>
        <lane id=":katip-upper-left-junc-4to5_0_2" index="2" disallow="tram rail_urban rail rail_electric rail_fast ship" speed="16.67" length="0.10" shape="289.75,754.46 289.75,754.46"/>
        <lane id=":katip-upper-left-junc-4to5_0_3" index="3" disallow="tram rail_urban rail rail_electric rail_fast ship" speed="16.67" length="0.10" shape="292.95,754.29 292.95,754.30"/>
        <lane id=":katip-upper-left-junc-4to5_0_4" index="4" disallow="tram rail_urban rail rail_electric rail_fast ship" speed="16.67" length="0.10" shape="296.14,754.13 296.14,754.13"/>
    </edge>
    <edge id=":katip-upper-left-junc-5to6_0" function="internal">
        <lane id=":katip-upper-left-junc-5to6_0_0" index="0" disallow="tram rail_urban rail rail_electric rail_fast ship" speed="16.67" length="0.30" shape="282.17,731.69 282.15,731.39"/>
        <lane id=":katip-upper-left-junc-5to6_0_1" index="1" disallow="tram rail_urban rail rail_electric rail_fast ship" speed="16.67" length="0.30" shape="285.36,731.52 285.35,731.22"/>
        <lane id=":katip-upper-left-junc-5to6_0_2" index="2" disallow="tram rail_urban rail rail_electric rail_fast ship" speed="16.67" length="0.30" shape="288.56,731.36 288.54,731.06"/>
        <lane id=":katip-upper-left-junc-5to6_0_3" index="3" disallow="tram rail_urban rail rail_electric rail_fast ship" speed="16.67" length="0.30" shape="291.75,731.19 291.74,730.90"/>
        <lane id=":katip-upper-left-junc-5to6_0_4" index="4" disallow="tram rail_urban rail rail_electric rail_fast ship" speed="16.67" length="0.30" shape="294.95,731.03 294.93,730.73"/>
    </edge>
    <edge id=":thornton-drive_0" function="internal">
        <lane id=":thornton-drive_0_0" index="0" speed="13.89" length="9.56" shape="377.25,971.77 367.69,971.83"/>
    </edge>
    <edge id=":thornton-drive_1" function="internal">
        <lane id=":thornton-drive_1_0" index="0" speed="13.38" length="9.48" shape="377.25,971.77 374.52,971.50 372.73,970.82 371.09,969.68 368.79,968.05"/>
    </edge>
    <edge id=":thornton-drive_2" function="internal">
        <lane id=":thornton-drive_2_0" index="0" speed="12.08" length="7.69" shape="370.54,965.37 372.39,966.73 373.70,967.71 375.12,968.33 377.31,968.57"/>
    </edge>
    <edge id=":thornton-drive-exit_0" function="internal">
        <lane id=":thornton-drive-exit_0_0" index="0" disallow="tram rail_urban rail rail_electric rail_fast ship" speed="6.39" length="9.04" shape="330.97,972.39 328.51,972.78 326.80,973.87 325.86,975.66 325.67,978.15"/>
        <lane id=":thornton-drive-exit_0_1" index="1" disallow="tram rail_urban rail rail_electric rail_fast ship" speed="7.22" length="11.82" shape="330.97,972.39 327.11,972.81 324.40,973.95 322.86,975.80 322.48,978.37"/>
        <lane id=":thornton-drive-exit_0_2" index="2" disallow="tram rail_urban rail rail_electric rail_fast ship" speed="8.00" length="14.75" shape="330.97,972.39 325.71,972.85 322.00,974.03 319.87,975.94 319.29,978.59"/>
    </edge>
    <edge id=":thornton-drive-exit_3" function="internal">
        <lane id=":thornton-drive-exit_3_0" index="0" disallow="tram rail_urban rail rail_electric rail_fast ship" speed="16.67" length="11.64" shape="324.74,966.40 325.67,978.15"/>